@<TRIPOS>MOLECULE
ICIGOT_geomtry_0_nunpairedes_0_charge_2 Charge: 2 Unpaired_Electrons: 3 XTB_Unpaired_Electrons: 0 XTB_Charge: 2
   183   187     1     0     0
SMALL
NoCharges
****
Generated from Architector

@<TRIPOS>ATOM
     1 Er1      -0.2391    0.0182   -0.2345   Er        1 RES1   0.0000
     2 C1        3.2850   -3.0600    5.4214   C.3       1 RES1   0.0000
     3 C2        1.8744   -2.5386    5.1733   C.3       1 RES1   0.0000
     4 C3        1.2751   -1.9058    6.4324   C.3       1 RES1   0.0000
     5 C4        1.6354   -0.4194    6.5489   C.3       1 RES1   0.0000
     6 C5        0.5453    0.5080    5.9801   C.3       1 RES1   0.0000
     7 C6        1.0553    1.6787    5.1291   C.3       1 RES1   0.0000
     8 N1        1.4832    1.4104    3.7540   N.am      1 RES1   0.0000
     9 C7        2.7414    2.0438    3.3274   C.3       1 RES1   0.0000
    10 C8        3.8418    1.0979    2.8422   C.3       1 RES1   0.0000
    11 C9        4.3718    0.1523    3.9184   C.3       1 RES1   0.0000
    12 C10       5.6440   -0.5908    3.5040   C.3       1 RES1   0.0000
    13 C11       5.4463   -1.4766    2.2765   C.3       1 RES1   0.0000
    14 C12       6.6760   -2.3203    1.9627   C.3       1 RES1   0.0000
    15 C13       0.6994    0.9109    2.8037   C.2       1 RES1   0.0000
    16 O1        1.0719    0.7777    1.6215   O.2       1 RES1   0.0000
    17 C14      -0.7298    0.4525    3.1322   C.3       1 RES1   0.0000
    18 O2       -1.4693    0.2615    1.9312   O.3       1 RES1   0.0000
    19 C15      -2.5718    1.1379    1.7261   C.3       1 RES1   0.0000
    20 C16      -2.2537    2.0870    0.5619   C.2       1 RES1   0.0000
    21 O3       -1.1036    2.0313    0.0693   O.2       1 RES1   0.0000
    22 N2       -3.1732    2.9293    0.1330   N.am      1 RES1   0.0000
    23 C17      -2.8588    3.8007   -0.9903   C.3       1 RES1   0.0000
    24 C18      -3.1038    3.1268   -2.3391   C.3       1 RES1   0.0000
    25 C19      -2.6838    4.0435   -3.4870   C.3       1 RES1   0.0000
    26 C20      -1.1661    4.1846   -3.5946   C.3       1 RES1   0.0000
    27 C21      -0.7362    4.8659   -4.8932   C.3       1 RES1   0.0000
    28 C22      -1.1495    6.3322   -4.9539   C.3       1 RES1   0.0000
    29 C23      -4.5393    2.9983    0.6125   C.3       1 RES1   0.0000
    30 C24      -4.8953    4.2971    1.3499   C.3       1 RES1   0.0000
    31 C25      -3.9978    4.6167    2.5461   C.3       1 RES1   0.0000
    32 C26      -2.6848    5.2946    2.1540   C.3       1 RES1   0.0000
    33 C27      -1.8492    5.7221    3.3604   C.3       1 RES1   0.0000
    34 C28      -1.2121    4.5374    4.0826   C.3       1 RES1   0.0000
    35 H1        3.7190   -3.4832    4.5165   H         1 RES1   0.0000
    36 H2        3.2540   -3.8381    6.1798   H         1 RES1   0.0000
    37 H3        3.9361   -2.2688    5.7823   H         1 RES1   0.0000
    38 H4        1.2562   -3.3731    4.8506   H         1 RES1   0.0000
    39 H5        1.8696   -1.8029    4.3594   H         1 RES1   0.0000
    40 H6        1.6466   -2.4499    7.3000   H         1 RES1   0.0000
    41 H7        0.1909   -2.0276    6.4268   H         1 RES1   0.0000
    42 H8        2.5713   -0.2494    6.0229   H         1 RES1   0.0000
    43 H9        1.8195   -0.1757    7.5941   H         1 RES1   0.0000
    44 H10       0.0058    0.9617    6.8128   H         1 RES1   0.0000
    45 H11      -0.1784   -0.0903    5.4340   H         1 RES1   0.0000
    46 H12       1.9263    2.0889    5.6392   H         1 RES1   0.0000
    47 H13       0.2846    2.4570    5.1099   H         1 RES1   0.0000
    48 H14       3.1159    2.6180    4.1729   H         1 RES1   0.0000
    49 H15       2.5156    2.7356    2.5090   H         1 RES1   0.0000
    50 H16       4.6634    1.7310    2.5001   H         1 RES1   0.0000
    51 H17       3.4627    0.5369    1.9884   H         1 RES1   0.0000
    52 H18       3.6010   -0.5778    4.1596   H         1 RES1   0.0000
    53 H19       4.5953    0.7234    4.8217   H         1 RES1   0.0000
    54 H20       5.9734   -1.2136    4.3373   H         1 RES1   0.0000
    55 H21       6.4397    0.1268    3.3011   H         1 RES1   0.0000
    56 H22       5.2367   -0.8373    1.4155   H         1 RES1   0.0000
    57 H23       4.5840   -2.1321    2.4385   H         1 RES1   0.0000
    58 H24       7.5318   -1.6799    1.7661   H         1 RES1   0.0000
    59 H25       6.5068   -2.9431    1.0854   H         1 RES1   0.0000
    60 H26       6.9192   -2.9693    2.7996   H         1 RES1   0.0000
    61 H27      -1.2229    1.1734    3.7921   H         1 RES1   0.0000
    62 H28      -0.6937   -0.5353    3.6032   H         1 RES1   0.0000
    63 H29      -2.8039    1.7052    2.6334   H         1 RES1   0.0000
    64 H30      -3.4168    0.4999    1.4530   H         1 RES1   0.0000
    65 H31      -1.8134    4.0972   -0.9130   H         1 RES1   0.0000
    66 H32      -3.4811    4.6887   -0.9053   H         1 RES1   0.0000
    67 H33      -4.1601    2.8727   -2.4399   H         1 RES1   0.0000
    68 H34      -2.5309    2.1986   -2.3954   H         1 RES1   0.0000
    69 H35      -3.1408    5.0232   -3.3436   H         1 RES1   0.0000
    70 H36      -3.0654    3.6276   -4.4211   H         1 RES1   0.0000
    71 H37      -0.7162    3.1890   -3.5457   H         1 RES1   0.0000
    72 H38      -0.7771    4.7627   -2.7539   H         1 RES1   0.0000
    73 H39      -1.1697    4.3333   -5.7416   H         1 RES1   0.0000
    74 H40       0.3507    4.8003   -4.9800   H         1 RES1   0.0000
    75 H41      -2.2305    6.4360   -4.9987   H         1 RES1   0.0000
    76 H42      -0.7311    6.8041   -5.8389   H         1 RES1   0.0000
    77 H43      -0.7859    6.8692   -4.0799   H         1 RES1   0.0000
    78 H44      -4.7415    2.1559    1.2702   H         1 RES1   0.0000
    79 H45      -5.1891    2.9115   -0.2614   H         1 RES1   0.0000
    80 H46      -5.9202    4.1684    1.6997   H         1 RES1   0.0000
    81 H47      -4.9014    5.1517    0.6722   H         1 RES1   0.0000
    82 H48      -3.8075    3.6988    3.1046   H         1 RES1   0.0000
    83 H49      -4.5352    5.2948    3.2119   H         1 RES1   0.0000
    84 H50      -2.9198    6.1830    1.5670   H         1 RES1   0.0000
    85 H51      -2.0762    4.6388    1.5307   H         1 RES1   0.0000
    86 H52      -2.4744    6.2812    4.0580   H         1 RES1   0.0000
    87 H53      -1.0552    6.3894    3.0174   H         1 RES1   0.0000
    88 H54      -1.9699    3.9131    4.5555   H         1 RES1   0.0000
    89 H55      -0.5396    4.8966    4.8587   H         1 RES1   0.0000
    90 H56      -0.6375    3.9350    3.3755   H         1 RES1   0.0000
    91 C29      -4.1099   -2.7791   -0.7615   C.3       1 RES1   0.0000
    92 C30      -4.9030   -4.0753   -0.6390   C.3       1 RES1   0.0000
    93 C31      -4.4102   -5.0426    0.4377   C.3       1 RES1   0.0000
    94 C32      -3.1827   -5.8704    0.0498   C.3       1 RES1   0.0000
    95 C33      -1.8445   -5.1279    0.0530   C.3       1 RES1   0.0000
    96 C34      -1.6624   -4.3939    1.3805   C.3       1 RES1   0.0000
    97 N3       -0.2753   -4.0287    1.6391   N.am      1 RES1   0.0000
    98 C35       0.5537   -5.0434    2.2642   C.3       1 RES1   0.0000
    99 C36       0.1811   -5.5788    3.6827   C.3       1 RES1   0.0000
   100 C37      -1.1241   -5.2465    4.4303   C.3       1 RES1   0.0000
   101 C38      -1.5595   -3.7797    4.5329   C.3       1 RES1   0.0000
   102 C39      -2.3332   -3.5407    5.8323   C.3       1 RES1   0.0000
   103 C40      -2.9638   -2.1526    5.8952   C.3       1 RES1   0.0000
   104 C41       0.1950   -2.9523    1.0297   C.2       1 RES1   0.0000
   105 O4       -0.5408   -2.1582    0.4016   O.2       1 RES1   0.0000
   106 C42       1.6933   -2.6195    1.0600   C.3       1 RES1   0.0000
   107 O5        1.8437   -1.4484    0.2775   O.3       1 RES1   0.0000
   108 C43       2.9929   -1.3826   -0.5633   C.3       1 RES1   0.0000
   109 C44       2.5897   -0.4308   -1.7007   C.2       1 RES1   0.0000
   110 O6        1.6097    0.3075   -1.4725   O.2       1 RES1   0.0000
   111 N4        3.2155   -0.4627   -2.8644   N.am      1 RES1   0.0000
   112 C45       2.5945    0.1865   -4.0136   C.3       1 RES1   0.0000
   113 C46       2.0900   -0.8264   -5.0463   C.3       1 RES1   0.0000
   114 C47       0.9155   -1.6727   -4.5482   C.3       1 RES1   0.0000
   115 C48       1.3354   -2.9149   -3.7618   C.3       1 RES1   0.0000
   116 C49       0.1553   -3.6118   -3.0830   C.3       1 RES1   0.0000
   117 C50      -0.7681   -4.2839   -4.0922   C.3       1 RES1   0.0000
   118 C51       4.5640   -0.9534   -3.0662   C.3       1 RES1   0.0000
   119 C52       5.5577    0.2170   -3.1292   C.3       1 RES1   0.0000
   120 C53       5.2963    1.2766   -2.0597   C.3       1 RES1   0.0000
   121 C54       6.4720    2.2538   -1.9399   C.3       1 RES1   0.0000
   122 C55       7.4124    1.9160   -0.7824   C.3       1 RES1   0.0000
   123 C56       8.1089    0.5664   -0.9307   C.3       1 RES1   0.0000
   124 H57      -4.6154   -2.0965   -1.4398   H         1 RES1   0.0000
   125 H58      -3.1141   -2.9508   -1.1602   H         1 RES1   0.0000
   126 H59      -4.0127   -2.2860    0.2048   H         1 RES1   0.0000
   127 H60      -4.9014   -4.5867   -1.6017   H         1 RES1   0.0000
   128 H61      -5.9367   -3.8153   -0.4069   H         1 RES1   0.0000
   129 H62      -5.2137   -5.7520    0.6394   H         1 RES1   0.0000
   130 H63      -4.2367   -4.4963    1.3660   H         1 RES1   0.0000
   131 H64      -3.3458   -6.2954   -0.9411   H         1 RES1   0.0000
   132 H65      -3.1042   -6.7059    0.7493   H         1 RES1   0.0000
   133 H66      -1.7754   -4.4269   -0.7760   H         1 RES1   0.0000
   134 H67      -1.0477   -5.8636   -0.0754   H         1 RES1   0.0000
   135 H68      -1.9919   -5.0533    2.1762   H         1 RES1   0.0000
   136 H69      -2.2530   -3.4769    1.3749   H         1 RES1   0.0000
   137 H70       1.5697   -4.6594    2.3371   H         1 RES1   0.0000
   138 H71       0.5727   -5.9019    1.5855   H         1 RES1   0.0000
   139 H72       1.0086   -5.3159    4.3430   H         1 RES1   0.0000
   140 H73       0.1958   -6.6673    3.6154   H         1 RES1   0.0000
   141 H74      -0.9559   -5.6140    5.4480   H         1 RES1   0.0000
   142 H75      -1.9520   -5.8409    4.0398   H         1 RES1   0.0000
   143 H76      -2.2085   -3.5025    3.7027   H         1 RES1   0.0000
   144 H77      -0.6953   -3.1162    4.4931   H         1 RES1   0.0000
   145 H78      -1.6654   -3.6755    6.6856   H         1 RES1   0.0000
   146 H79      -3.1231   -4.2891    5.9140   H         1 RES1   0.0000
   147 H80      -2.2001   -1.3732    5.8821   H         1 RES1   0.0000
   148 H81      -3.5348   -2.0487    6.8152   H         1 RES1   0.0000
   149 H82      -3.6393   -2.0007    5.0533   H         1 RES1   0.0000
   150 H83       2.2699   -3.4518    0.6411   H         1 RES1   0.0000
   151 H84       2.0062   -2.4303    2.0959   H         1 RES1   0.0000
   152 H85       3.2432   -2.3770   -0.9473   H         1 RES1   0.0000
   153 H86       3.8455   -0.9723   -0.0079   H         1 RES1   0.0000
   154 H87       3.3100    0.8641   -4.4785   H         1 RES1   0.0000
   155 H88       1.7500    0.7673   -3.6422   H         1 RES1   0.0000
   156 H89       2.9028   -1.4748   -5.3761   H         1 RES1   0.0000
   157 H90       1.7645   -0.2439   -5.9090   H         1 RES1   0.0000
   158 H91       0.3266   -1.9910   -5.4081   H         1 RES1   0.0000
   159 H92       0.2790   -1.0415   -3.9269   H         1 RES1   0.0000
   160 H93       2.0647   -2.6431   -2.9986   H         1 RES1   0.0000
   161 H94       1.8172   -3.6241   -4.4374   H         1 RES1   0.0000
   162 H95      -0.4029   -2.8806   -2.4810   H         1 RES1   0.0000
   163 H96       0.5430   -4.3746   -2.4003   H         1 RES1   0.0000
   164 H97      -1.2701   -3.5517   -4.7174   H         1 RES1   0.0000
   165 H98      -1.5301   -4.8766   -3.5923   H         1 RES1   0.0000
   166 H99      -0.1893   -4.9445   -4.7342   H         1 RES1   0.0000
   167 H100      4.6117   -1.5003   -4.0078   H         1 RES1   0.0000
   168 H101      4.8434   -1.6279   -2.2573   H         1 RES1   0.0000
   169 H102      5.5117    0.6997   -4.1058   H         1 RES1   0.0000
   170 H103      6.5644   -0.1825   -3.0174   H         1 RES1   0.0000
   171 H104      5.1225    0.8026   -1.0905   H         1 RES1   0.0000
   172 H105      4.3893    1.8281   -2.3137   H         1 RES1   0.0000
   173 H106      6.0958    3.2672   -1.7928   H         1 RES1   0.0000
   174 H107      7.0392    2.2528   -2.8712   H         1 RES1   0.0000
   175 H108      6.8464    1.9241    0.1538   H         1 RES1   0.0000
   176 H109      8.1716    2.6973   -0.7159   H         1 RES1   0.0000
   177 H110      7.4038   -0.2585   -0.8436   H         1 RES1   0.0000
   178 H111      8.8618    0.4457   -0.1554   H         1 RES1   0.0000
   179 H112      8.6088    0.4991   -1.8942   H         1 RES1   0.0000
   180 N5       -2.0578   -0.3099   -1.9352   N.3       1 RES1   0.0000
   181 O7       -2.8759   -0.5278   -2.7651   O.2       1 RES1   0.0000
   182 O8       -2.3452   -0.2402   -0.7277   O.co2     1 RES1   0.0000
   183 O9       -0.8601   -0.1186   -2.2266   O.co2     1 RES1   0.0000
@<TRIPOS>BOND
     1     1    16    1
     2     1    18    1
     3     1    21    1
     4     1   105    1
     5     1   107    1
     6     1   110    1
     7     1   182    1
     8     1   183    1
     9     2     3    1
    10     2    35    1
    11     2    36    1
    12     2    37    1
    13     3     4    1
    14     3    38    1
    15     3    39    1
    16     4     5    1
    17     4    40    1
    18     4    41    1
    19     5     6    1
    20     5    42    1
    21     5    43    1
    22     6     7    1
    23     6    44    1
    24     6    45    1
    25     7     8    1
    26     7    46    1
    27     7    47    1
    28     8     9    1
    29     8    15    1
    30     9    10    1
    31     9    48    1
    32     9    49    1
    33    10    11    1
    34    10    50    1
    35    10    51    1
    36    11    12    1
    37    11    52    1
    38    11    53    1
    39    12    13    1
    40    12    54    1
    41    12    55    1
    42    13    14    1
    43    13    56    1
    44    13    57    1
    45    14    58    1
    46    14    59    1
    47    14    60    1
    48    15    16    2
    49    15    17    1
    50    17    18    1
    51    17    61    1
    52    17    62    1
    53    18    19    1
    54    19    20    1
    55    19    63    1
    56    19    64    1
    57    20    21    2
    58    20    22    1
    59    22    23    1
    60    22    29    1
    61    23    24    1
    62    23    65    1
    63    23    66    1
    64    24    25    1
    65    24    67    1
    66    24    68    1
    67    25    26    1
    68    25    69    1
    69    25    70    1
    70    26    27    1
    71    26    71    1
    72    26    72    1
    73    27    28    1
    74    27    73    1
    75    27    74    1
    76    28    75    1
    77    28    76    1
    78    28    77    1
    79    29    30    1
    80    29    78    1
    81    29    79    1
    82    30    31    1
    83    30    80    1
    84    30    81    1
    85    31    32    1
    86    31    82    1
    87    31    83    1
    88    32    33    1
    89    32    84    1
    90    32    85    1
    91    33    34    1
    92    33    86    1
    93    33    87    1
    94    34    88    1
    95    34    89    1
    96    34    90    1
    97    91    92    1
    98    91   124    1
    99    91   125    1
   100    91   126    1
   101    92    93    1
   102    92   127    1
   103    92   128    1
   104    93    94    1
   105    93   129    1
   106    93   130    1
   107    94    95    1
   108    94   131    1
   109    94   132    1
   110    95    96    1
   111    95   133    1
   112    95   134    1
   113    96    97    1
   114    96   135    1
   115    96   136    1
   116    97    98    1
   117    97   104    1
   118    98    99    1
   119    98   137    1
   120    98   138    1
   121    99   100    1
   122    99   139    1
   123    99   140    1
   124   100   101    1
   125   100   141    1
   126   100   142    1
   127   101   102    1
   128   101   143    1
   129   101   144    1
   130   102   103    1
   131   102   145    1
   132   102   146    1
   133   103   147    1
   134   103   148    1
   135   103   149    1
   136   104   105    2
   137   104   106    1
   138   106   107    1
   139   106   150    1
   140   106   151    1
   141   107   108    1
   142   108   109    1
   143   108   152    1
   144   108   153    1
   145   109   110    2
   146   109   111    1
   147   111   112    1
   148   111   118    1
   149   112   113    1
   150   112   154    1
   151   112   155    1
   152   113   114    1
   153   113   156    1
   154   113   157    1
   155   114   115    1
   156   114   158    1
   157   114   159    1
   158   115   116    1
   159   115   160    1
   160   115   161    1
   161   116   117    1
   162   116   162    1
   163   116   163    1
   164   117   164    1
   165   117   165    1
   166   117   166    1
   167   118   119    1
   168   118   167    1
   169   118   168    1
   170   119   120    1
   171   119   169    1
   172   119   170    1
   173   120   121    1
   174   120   171    1
   175   120   172    1
   176   121   122    1
   177   121   173    1
   178   121   174    1
   179   122   123    1
   180   122   175    1
   181   122   176    1
   182   123   177    1
   183   123   178    1
   184   123   179    1
   185   180   181    2
   186   180   182    1
   187   180   183    1
@<TRIPOS>SUBSTRUCTURE
     1 RES1      183 GROUP             0 ****  ****    0  
