@<TRIPOS>MOLECULE
ICIGOT_geomtry_0_nunpairedes_0_charge_2 Charge: 2 Unpaired_Electrons: 3 XTB_Unpaired_Electrons: 0 XTB_Charge: 2
   115   129     1     0     0
SMALL
NoCharges
****
Generated from Architector

@<TRIPOS>ATOM
     1 Er1       0.8703   -0.0655    0.7238   Er        1 RES1   0.0000
     2 C1        0.1752   -3.8279    4.2294   C.3       1 RES1   0.0000
     3 C2        0.6560   -2.3894    4.3930   C.3       1 RES1   0.0000
     4 C3       -0.4619   -1.3678    4.6040   C.3       1 RES1   0.0000
     5 C4       -1.2758   -1.0572    3.3417   C.3       1 RES1   0.0000
     6 C5       -2.0560    0.2666    3.5206   C.3       1 RES1   0.0000
     7 C6       -2.5810    1.0253    2.2841   C.3       1 RES1   0.0000
     8 N1       -1.7276    2.1163    1.7614   N.ar      1 RES1   0.0000
     9 C7       -2.3467    3.1990    1.1447   C.ar      1 RES1   0.0000
    10 C8       -3.7272    3.0143    0.6197   C.ar      1 RES1   0.0000
    11 C9       -4.9373    3.3388    1.2127   C.ar      1 RES1   0.0000
    12 C10      -6.1183    3.1178    0.5189   C.ar      1 RES1   0.0000
    13 C11      -6.0950    2.5728   -0.7532   C.ar      1 RES1   0.0000
    14 C12      -4.8894    2.2512   -1.3529   C.ar      1 RES1   0.0000
    15 C13      -3.7124    2.4730   -0.6696   C.ar      1 RES1   0.0000
    16 C14      -1.6283    4.2624    0.6453   C.ar      1 RES1   0.0000
    17 C15      -2.3019    5.5468    0.3566   C.ar      1 RES1   0.0000
    18 C16      -2.1642    6.4868    1.3744   C.ar      1 RES1   0.0000
    19 C17      -2.8042    7.7055    1.2928   C.ar      1 RES1   0.0000
    20 C18      -3.5824    7.9999    0.1874   C.ar      1 RES1   0.0000
    21 C19      -3.6862    7.0863   -0.8463   C.ar      1 RES1   0.0000
    22 C20      -3.0557    5.8544   -0.7660   C.ar      1 RES1   0.0000
    23 C21      -0.2352    4.0756    0.3860   C.ar      1 RES1   0.0000
    24 C22       0.4680    4.7228   -0.6512   C.ar      1 RES1   0.0000
    25 C23       1.4673    4.0211   -1.3157   C.ar      1 RES1   0.0000
    26 C24       1.9582    4.3795   -2.6233   C.ar      1 RES1   0.0000
    27 C25       2.3092    3.4130   -3.5028   C.ar      1 RES1   0.0000
    28 C26       2.2764    2.0196   -3.1335   C.ar      1 RES1   0.0000
    29 C27       2.0521    0.9736   -4.0275   C.ar      1 RES1   0.0000
    30 C28       1.7888   -0.3231   -3.5499   C.ar      1 RES1   0.0000
    31 C29       1.0858   -1.3569   -4.2690   C.ar      1 RES1   0.0000
    32 C30       1.3184   -1.7670   -5.6441   C.ar      1 RES1   0.0000
    33 C31       0.8330   -3.0366   -6.0034   C.ar      1 RES1   0.0000
    34 C32       1.1197   -3.6116   -7.2168   C.ar      1 RES1   0.0000
    35 C33       1.9651   -2.9649   -8.1032   C.ar      1 RES1   0.0000
    36 C34       2.4943   -1.7310   -7.7585   C.ar      1 RES1   0.0000
    37 C35       2.1721   -1.1299   -6.5549   C.ar      1 RES1   0.0000
    38 C36       0.1279   -2.0602   -3.5106   C.ar      1 RES1   0.0000
    39 C37      -1.2096   -2.3022   -4.0875   C.ar      1 RES1   0.0000
    40 C38      -1.7792   -1.2147   -4.7598   C.ar      1 RES1   0.0000
    41 C39      -3.0821   -1.2620   -5.2076   C.ar      1 RES1   0.0000
    42 C40      -3.8578   -2.3816   -4.9666   C.ar      1 RES1   0.0000
    43 C41      -3.2824   -3.4956   -4.3817   C.ar      1 RES1   0.0000
    44 C42      -1.9667   -3.4688   -3.9626   C.ar      1 RES1   0.0000
    45 N2        0.3396   -2.2780   -2.1670   N.ar      1 RES1   0.0000
    46 C43      -0.4899   -3.1814   -1.3897   C.3       1 RES1   0.0000
    47 C44       0.1021   -4.5861   -1.2463   C.3       1 RES1   0.0000
    48 C45      -0.7306   -5.3470   -0.2102   C.3       1 RES1   0.0000
    49 C46      -2.1901   -5.5478   -0.6343   C.3       1 RES1   0.0000
    50 C47      -3.0754   -6.0437    0.5118   C.3       1 RES1   0.0000
    51 C48      -3.3706   -4.9537    1.5375   C.3       1 RES1   0.0000
    52 C49       1.3154   -1.6467   -1.4758   C.ar      1 RES1   0.0000
    53 O1        1.4747   -1.8540   -0.2263   O.2       1 RES1   0.0000
    54 C50       1.9016   -0.5081   -2.1448   C.ar      1 RES1   0.0000
    55 N3        2.1871    0.4785   -1.2819   N.ar      1 RES1   0.0000
    56 C51       2.2872    1.7220   -1.7425   C.ar      1 RES1   0.0000
    57 C52       1.8473    2.7473   -0.8115   C.ar      1 RES1   0.0000
    58 N4        1.4148    2.2962    0.3650   N.ar      1 RES1   0.0000
    59 C53       0.3517    2.9090    0.9137   C.ar      1 RES1   0.0000
    60 C54      -0.3802    2.0196    1.7993   C.ar      1 RES1   0.0000
    61 O2        0.2272    1.0564    2.3447   O.2       1 RES1   0.0000
    62 H1        1.0110   -4.5152    4.3405   H         1 RES1   0.0000
    63 H2       -0.2770   -3.9993    3.2551   H         1 RES1   0.0000
    64 H3       -0.5532   -4.0739    4.9993   H         1 RES1   0.0000
    65 H4        1.2598   -2.0875    3.5103   H         1 RES1   0.0000
    66 H5        1.3050   -2.3536    5.2699   H         1 RES1   0.0000
    67 H6        0.0053   -0.4435    4.9489   H         1 RES1   0.0000
    68 H7       -1.1294   -1.7204    5.3910   H         1 RES1   0.0000
    69 H8       -1.9862   -1.8601    3.1355   H         1 RES1   0.0000
    70 H9       -0.5444   -1.0487    2.4913   H         1 RES1   0.0000
    71 H10      -1.4607    0.9605    4.1176   H         1 RES1   0.0000
    72 H11      -2.9411    0.0124    4.1084   H         1 RES1   0.0000
    73 H12      -3.5171    1.5118    2.5698   H         1 RES1   0.0000
    74 H13      -2.8051    0.3341    1.4606   H         1 RES1   0.0000
    75 H14      -4.9666    3.7756    2.1981   H         1 RES1   0.0000
    76 H15      -7.0613    3.3744    0.9748   H         1 RES1   0.0000
    77 H16      -7.0135    2.4090   -1.2901   H         1 RES1   0.0000
    78 H17      -4.8556    1.8391   -2.3498   H         1 RES1   0.0000
    79 H18      -2.7588    2.2495   -1.1293   H         1 RES1   0.0000
    80 H19      -1.5651    6.2499    2.2390   H         1 RES1   0.0000
    81 H20      -2.7052    8.4145    2.0975   H         1 RES1   0.0000
    82 H21      -4.0866    8.9501    0.1252   H         1 RES1   0.0000
    83 H22      -4.2809    7.3324   -1.7112   H         1 RES1   0.0000
    84 H23      -3.1471    5.1394   -1.5684   H         1 RES1   0.0000
    85 H24       0.0985    5.6530   -1.0512   H         1 RES1   0.0000
    86 H25       1.9397    5.4200   -2.9015   H         1 RES1   0.0000
    87 H26       2.5579    3.6542   -4.5225   H         1 RES1   0.0000
    88 H27       1.9014    1.1887   -5.0742   H         1 RES1   0.0000
    89 H28       0.2428   -3.5976   -5.3033   H         1 RES1   0.0000
    90 H29       0.7086   -4.5808   -7.4474   H         1 RES1   0.0000
    91 H30       2.2380   -3.4336   -9.0335   H         1 RES1   0.0000
    92 H31       3.1779   -1.2419   -8.4357   H         1 RES1   0.0000
    93 H32       2.6063   -0.1700   -6.3330   H         1 RES1   0.0000
    94 H33      -1.1923   -0.3224   -4.9007   H         1 RES1   0.0000
    95 H34      -3.4901   -0.4142   -5.7320   H         1 RES1   0.0000
    96 H35      -4.8883   -2.3977   -5.2767   H         1 RES1   0.0000
    97 H36      -3.8655   -4.3907   -4.2528   H         1 RES1   0.0000
    98 H37      -1.5221   -4.3742   -3.5841   H         1 RES1   0.0000
    99 H38      -1.4783   -3.2079   -1.8437   H         1 RES1   0.0000
   100 H39      -0.5680   -2.7746   -0.3762   H         1 RES1   0.0000
   101 H40       1.1359   -4.5148   -0.8947   H         1 RES1   0.0000
   102 H41       0.1122   -5.1111   -2.2036   H         1 RES1   0.0000
   103 H42      -0.6921   -4.7745    0.7208   H         1 RES1   0.0000
   104 H43      -0.2720   -6.3222   -0.0317   H         1 RES1   0.0000
   105 H44      -2.2253   -6.2660   -1.4579   H         1 RES1   0.0000
   106 H45      -2.6193   -4.6071   -0.9899   H         1 RES1   0.0000
   107 H46      -2.6108   -6.8996    1.0030   H         1 RES1   0.0000
   108 H47      -4.0212   -6.3835    0.0892   H         1 RES1   0.0000
   109 H48      -2.4697   -4.6494    2.0647   H         1 RES1   0.0000
   110 H49      -4.0813   -5.3192    2.2733   H         1 RES1   0.0000
   111 H50      -3.7990   -4.0774    1.0523   H         1 RES1   0.0000
   112 N5       -1.1841   -0.1152   -0.7761   N.3       1 RES1   0.0000
   113 O3       -1.9949   -0.3753   -1.6035   O.2       1 RES1   0.0000
   114 O4       -0.4226    0.8623   -0.8842   O.co2     1 RES1   0.0000
   115 O5       -1.0602   -0.7933    0.2576   O.co2     1 RES1   0.0000
@<TRIPOS>BOND
     1     1     8    1
     2     1    45    1
     3     1    53    1
     4     1    55    1
     5     1    58    1
     6     1    61    1
     7     1   114    1
     8     1   115    1
     9     2     3    1
    10     2    62    1
    11     2    63    1
    12     2    64    1
    13     3     4    1
    14     3    65    1
    15     3    66    1
    16     4     5    1
    17     4    67    1
    18     4    68    1
    19     5     6    1
    20     5    69    1
    21     5    70    1
    22     6     7    1
    23     6    71    1
    24     6    72    1
    25     7     8    1
    26     7    73    1
    27     7    74    1
    28     8     9    1
    29     8    60    1
    30     9    10    1
    31     9    16    2
    32    10    11    1
    33    10    15    2
    34    11    12    2
    35    11    75    1
    36    12    13    1
    37    12    76    1
    38    13    14    2
    39    13    77    1
    40    14    15    1
    41    14    78    1
    42    15    79    1
    43    16    17    1
    44    16    23    1
    45    17    18    1
    46    17    22    2
    47    18    19    2
    48    18    80    1
    49    19    20    1
    50    19    81    1
    51    20    21    2
    52    20    82    1
    53    21    22    1
    54    21    83    1
    55    22    84    1
    56    23    24    1
    57    23    59    2
    58    24    25    2
    59    24    85    1
    60    25    26    1
    61    25    57    1
    62    26    27    2
    63    26    86    1
    64    27    28    1
    65    27    87    1
    66    28    29    1
    67    28    56    2
    68    29    30    2
    69    29    88    1
    70    30    31    1
    71    30    54    1
    72    31    32    1
    73    31    38    2
    74    32    33    1
    75    32    37    2
    76    33    34    2
    77    33    89    1
    78    34    35    1
    79    34    90    1
    80    35    36    2
    81    35    91    1
    82    36    37    1
    83    36    92    1
    84    37    93    1
    85    38    39    1
    86    38    45    1
    87    39    40    1
    88    39    44    2
    89    40    41    2
    90    40    94    1
    91    41    42    1
    92    41    95    1
    93    42    43    2
    94    42    96    1
    95    43    44    1
    96    43    97    1
    97    44    98    1
    98    45    46    1
    99    45    52    1
   100    46    47    1
   101    46    99    1
   102    46   100    1
   103    47    48    1
   104    47   101    1
   105    47   102    1
   106    48    49    1
   107    48   103    1
   108    48   104    1
   109    49    50    1
   110    49   105    1
   111    49   106    1
   112    50    51    1
   113    50   107    1
   114    50   108    1
   115    51   109    1
   116    51   110    1
   117    51   111    1
   118    52    53    2
   119    52    54    1
   120    54    55    2
   121    55    56    1
   122    56    57    1
   123    57    58    2
   124    58    59    1
   125    59    60    1
   126    60    61    2
   127   112   113    2
   128   112   114    1
   129   112   115    1
@<TRIPOS>SUBSTRUCTURE
     1 RES1      115 GROUP             0 ****  ****    0  
