@<TRIPOS>MOLECULE
ICIGOT_geomtry_0_nunpairedes_0_charge_3 Charge: 3 Unpaired_Electrons: 3 XTB_Unpaired_Electrons: 0 XTB_Charge: 3
   191   194     1     0     0
SMALL
NoCharges
****
Generated from Architector

@<TRIPOS>ATOM
     1 Er1      -0.0085   -0.1413    0.0525   Er        1 RES1   0.0000
     2 C1        1.9648   -2.0480   -3.5776   C.3       1 RES1   0.0000
     3 C2        2.1795   -2.6434   -4.9672   C.3       1 RES1   0.0000
     4 C3        0.9552   -3.3570   -5.5446   C.3       1 RES1   0.0000
     5 C4       -0.3709   -2.5910   -5.5772   C.3       1 RES1   0.0000
     6 C5       -0.4165   -1.3934   -6.5328   C.3       1 RES1   0.0000
     7 C6        0.1884   -0.0798   -6.0244   C.3       1 RES1   0.0000
     8 C7       -0.6234    0.6048   -4.9228   C.3       1 RES1   0.0000
     9 C8        0.1198    1.8501   -4.4350   C.3       1 RES1   0.0000
    10 N1       -0.6530    2.5369   -3.4037   N.am      1 RES1   0.0000
    11 C9       -1.3971    3.6840   -3.8773   C.3       1 RES1   0.0000
    12 C10      -0.6732    2.0273   -2.1913   C.2       1 RES1   0.0000
    13 O1        0.0198    1.0297   -1.8628   O.2       1 RES1   0.0000
    14 C11      -1.6050    2.6281   -1.1335   C.3       1 RES1   0.0000
    15 O2       -1.5908    1.7613    0.0018   O.3       1 RES1   0.0000
    16 C12      -2.8663    1.4497    0.5621   C.3       1 RES1   0.0000
    17 C13      -3.0525   -0.0784    0.5873   C.2       1 RES1   0.0000
    18 O3       -2.0594   -0.8031    0.3109   O.2       1 RES1   0.0000
    19 N2       -4.2253   -0.5865    0.8991   N.am      1 RES1   0.0000
    20 C14      -5.3792    0.1946    1.3143   C.3       1 RES1   0.0000
    21 C15      -6.6416    0.0213    0.4555   C.3       1 RES1   0.0000
    22 C16      -6.5028    0.1354   -1.0673   C.3       1 RES1   0.0000
    23 C17      -5.8179    1.3683   -1.6616   C.3       1 RES1   0.0000
    24 C18      -6.4870    2.7231   -1.4124   C.3       1 RES1   0.0000
    25 C19      -6.2323    3.3782   -0.0552   C.3       1 RES1   0.0000
    26 C20      -6.7983    4.7998    0.0096   C.3       1 RES1   0.0000
    27 C21      -5.9893    5.8056   -0.8014   C.3       1 RES1   0.0000
    28 C22      -4.4342   -2.0274    0.7774   C.3       1 RES1   0.0000
    29 C23      -4.8061   -2.7958    2.0454   C.3       1 RES1   0.0000
    30 C24      -3.6512   -2.9918    3.0339   C.3       1 RES1   0.0000
    31 C25      -3.5501   -1.8266    4.0188   C.3       1 RES1   0.0000
    32 C26      -2.3960   -1.9881    5.0099   C.3       1 RES1   0.0000
    33 C27      -2.4664   -1.0347    6.2074   C.3       1 RES1   0.0000
    34 C28      -2.3699    0.4614    5.8893   C.3       1 RES1   0.0000
    35 C29      -3.6906    1.1411    5.5338   C.3       1 RES1   0.0000
    36 H1        2.9276   -1.8178   -3.1300   H         1 RES1   0.0000
    37 H2        1.4090   -1.1126   -3.6153   H         1 RES1   0.0000
    38 H3        1.4482   -2.7736   -2.9477   H         1 RES1   0.0000
    39 H4        2.5328   -1.8869   -5.6658   H         1 RES1   0.0000
    40 H5        2.9752   -3.3841   -4.8890   H         1 RES1   0.0000
    41 H6        1.1964   -3.6675   -6.5606   H         1 RES1   0.0000
    42 H7        0.7929   -4.2768   -4.9784   H         1 RES1   0.0000
    43 H8       -1.1305   -3.3027   -5.9128   H         1 RES1   0.0000
    44 H9       -0.6545   -2.2811   -4.5672   H         1 RES1   0.0000
    45 H10       0.1072   -1.6718   -7.4474   H         1 RES1   0.0000
    46 H11      -1.4567   -1.2127   -6.8100   H         1 RES1   0.0000
    47 H12       1.2011   -0.2542   -5.6647   H         1 RES1   0.0000
    48 H13       0.2538    0.6060   -6.8726   H         1 RES1   0.0000
    49 H14      -1.6068    0.8801   -5.3120   H         1 RES1   0.0000
    50 H15      -0.7731   -0.0624   -4.0684   H         1 RES1   0.0000
    51 H16       1.0861    1.5674   -4.0122   H         1 RES1   0.0000
    52 H17       0.2914    2.5376   -5.2629   H         1 RES1   0.0000
    53 H18      -2.1001    3.3734   -4.6524   H         1 RES1   0.0000
    54 H19      -1.9434    4.1996   -3.0959   H         1 RES1   0.0000
    55 H20      -0.7028    4.3928   -4.3309   H         1 RES1   0.0000
    56 H21      -1.2405    3.6165   -0.8271   H         1 RES1   0.0000
    57 H22      -2.6163    2.7194   -1.5417   H         1 RES1   0.0000
    58 H23      -2.9021    1.8443    1.5857   H         1 RES1   0.0000
    59 H24      -3.6630    1.9193   -0.0225   H         1 RES1   0.0000
    60 H25      -5.6291   -0.1137    2.3342   H         1 RES1   0.0000
    61 H26      -5.1158    1.2457    1.3448   H         1 RES1   0.0000
    62 H27      -7.0900   -0.9498    0.6673   H         1 RES1   0.0000
    63 H28      -7.3424    0.7780    0.8092   H         1 RES1   0.0000
    64 H29      -5.9823   -0.7443   -1.4573   H         1 RES1   0.0000
    65 H30      -7.5143    0.0916   -1.4713   H         1 RES1   0.0000
    66 H31      -4.7738    1.3915   -1.3431   H         1 RES1   0.0000
    67 H32      -5.7999    1.2044   -2.7426   H         1 RES1   0.0000
    68 H33      -6.1326    3.4021   -2.1880   H         1 RES1   0.0000
    69 H34      -7.5606    2.6090   -1.5531   H         1 RES1   0.0000
    70 H35      -6.6995    2.7941    0.7365   H         1 RES1   0.0000
    71 H36      -5.1559    3.4323    0.1499   H         1 RES1   0.0000
    72 H37      -7.8296    4.7935   -0.3424   H         1 RES1   0.0000
    73 H38      -6.8141    5.1204    1.0519   H         1 RES1   0.0000
    74 H39      -6.0531    5.5947   -1.8663   H         1 RES1   0.0000
    75 H40      -6.3730    6.8083   -0.6351   H         1 RES1   0.0000
    76 H41      -4.9410    5.7904   -0.5010   H         1 RES1   0.0000
    77 H42      -5.2321   -2.1644    0.0475   H         1 RES1   0.0000
    78 H43      -3.5144   -2.4551    0.3835   H         1 RES1   0.0000
    79 H44      -5.6413   -2.3184    2.5542   H         1 RES1   0.0000
    80 H45      -5.1515   -3.7734    1.7064   H         1 RES1   0.0000
    81 H46      -3.8098   -3.9166    3.5949   H         1 RES1   0.0000
    82 H47      -2.7126   -3.0957    2.4777   H         1 RES1   0.0000
    83 H48      -3.4444   -0.8996    3.4448   H         1 RES1   0.0000
    84 H49      -4.4800   -1.7751    4.5901   H         1 RES1   0.0000
    85 H50      -2.4295   -3.0063    5.4061   H         1 RES1   0.0000
    86 H51      -1.4330   -1.8753    4.4918   H         1 RES1   0.0000
    87 H52      -3.3914   -1.2179    6.7503   H         1 RES1   0.0000
    88 H53      -1.6495   -1.3005    6.8797   H         1 RES1   0.0000
    89 H54      -1.9663    0.9684    6.7673   H         1 RES1   0.0000
    90 H55      -1.6492    0.6045    5.0766   H         1 RES1   0.0000
    91 H56      -4.3840    1.0656    6.3664   H         1 RES1   0.0000
    92 H57      -3.5263    2.1999    5.3375   H         1 RES1   0.0000
    93 H58      -4.1582    0.6970    4.6592   H         1 RES1   0.0000
    94 C30      -3.7719   -3.5130   -3.9417   C.3       1 RES1   0.0000
    95 C31      -4.3612   -3.9699   -2.6128   C.3       1 RES1   0.0000
    96 C32      -3.3168   -4.3717   -1.5705   C.3       1 RES1   0.0000
    97 C33      -2.5103   -5.6186   -1.9334   C.3       1 RES1   0.0000
    98 C34      -1.6141   -6.0862   -0.7775   C.3       1 RES1   0.0000
    99 C35      -0.2576   -5.3671   -0.6844   C.3       1 RES1   0.0000
   100 C36       0.3414   -5.5440    0.7150   C.3       1 RES1   0.0000
   101 C37       1.8232   -5.1557    0.8447   C.3       1 RES1   0.0000
   102 N3        2.1838   -3.8938    0.2029   N.am      1 RES1   0.0000
   103 C38       3.1057   -4.0341   -0.9088   C.3       1 RES1   0.0000
   104 C39       1.6955   -2.7188    0.5550   C.2       1 RES1   0.0000
   105 O4        1.7529   -1.6794   -0.1468   O.2       1 RES1   0.0000
   106 C40       1.0286   -2.5946    1.9311   C.3       1 RES1   0.0000
   107 O5        0.6590   -1.2330    2.1576   O.3       1 RES1   0.0000
   108 C41       1.5549   -0.4517    2.9708   C.3       1 RES1   0.0000
   109 C42       1.5748    1.0071    2.4678   C.2       1 RES1   0.0000
   110 O6        1.2501    1.2022    1.2657   O.2       1 RES1   0.0000
   111 N4        1.9853    1.9803    3.2575   N.am      1 RES1   0.0000
   112 C43       2.2259    3.2917    2.6596   C.3       1 RES1   0.0000
   113 C44       3.6054    3.3420    2.0004   C.3       1 RES1   0.0000
   114 C45       3.9095    4.6988    1.3585   C.3       1 RES1   0.0000
   115 C46       3.0132    5.0402    0.1671   C.3       1 RES1   0.0000
   116 C47       3.3766    6.3830   -0.4799   C.3       1 RES1   0.0000
   117 C48       4.7148    6.3871   -1.2308   C.3       1 RES1   0.0000
   118 C49       5.9004    6.8868   -0.4044   C.3       1 RES1   0.0000
   119 C50       7.1661    6.9710   -1.2477   C.3       1 RES1   0.0000
   120 C51       2.2928    1.8899    4.6796   C.3       1 RES1   0.0000
   121 C52       1.0746    2.1164    5.5896   C.3       1 RES1   0.0000
   122 C53       0.4986    3.5394    5.6367   C.3       1 RES1   0.0000
   123 C54      -0.5875    3.8295    4.5970   C.3       1 RES1   0.0000
   124 C55      -1.0795    5.2780    4.6970   C.3       1 RES1   0.0000
   125 C56      -2.0802    5.6369    3.5983   C.3       1 RES1   0.0000
   126 C57      -2.5692    7.0807    3.7252   C.3       1 RES1   0.0000
   127 C58      -3.5380    7.4593    2.6105   C.3       1 RES1   0.0000
   128 H59      -4.5743   -3.2195   -4.6137   H         1 RES1   0.0000
   129 H60      -3.1071   -2.6574   -3.8089   H         1 RES1   0.0000
   130 H61      -3.2212   -4.3201   -4.4161   H         1 RES1   0.0000
   131 H62      -4.9762   -3.1637   -2.2026   H         1 RES1   0.0000
   132 H63      -5.0196   -4.8194   -2.7939   H         1 RES1   0.0000
   133 H64      -2.6342   -3.5276   -1.3951   H         1 RES1   0.0000
   134 H65      -3.8369   -4.5693   -0.6305   H         1 RES1   0.0000
   135 H66      -3.2162   -6.4160   -2.1671   H         1 RES1   0.0000
   136 H67      -1.9097   -5.4423   -2.8264   H         1 RES1   0.0000
   137 H68      -2.1626   -5.9471    0.1580   H         1 RES1   0.0000
   138 H69      -1.4267   -7.1557   -0.8819   H         1 RES1   0.0000
   139 H70       0.4186   -5.7960   -1.4263   H         1 RES1   0.0000
   140 H71      -0.3797   -4.2994   -0.9023   H         1 RES1   0.0000
   141 H72      -0.2740   -5.0019    1.4341   H         1 RES1   0.0000
   142 H73       0.2663   -6.5963    0.9911   H         1 RES1   0.0000
   143 H74       2.1064   -5.1389    1.8993   H         1 RES1   0.0000
   144 H75       2.4151   -5.9285    0.3532   H         1 RES1   0.0000
   145 H76       2.6648   -4.6211   -1.7143   H         1 RES1   0.0000
   146 H77       3.3933   -3.0593   -1.2912   H         1 RES1   0.0000
   147 H78       3.9937   -4.5538   -0.5423   H         1 RES1   0.0000
   148 H79       0.1018   -3.1761    1.9622   H         1 RES1   0.0000
   149 H80       1.6963   -2.9593    2.7145   H         1 RES1   0.0000
   150 H81       1.2506   -0.5398    4.0208   H         1 RES1   0.0000
   151 H82       2.5765   -0.8261    2.8475   H         1 RES1   0.0000
   152 H83       1.4704    3.4799    1.8983   H         1 RES1   0.0000
   153 H84       2.1527    4.0418    3.4431   H         1 RES1   0.0000
   154 H85       4.3787    3.1396    2.7430   H         1 RES1   0.0000
   155 H86       3.6553    2.5623    1.2367   H         1 RES1   0.0000
   156 H87       3.8303    5.4924    2.1058   H         1 RES1   0.0000
   157 H88       4.9445    4.6660    1.0151   H         1 RES1   0.0000
   158 H89       3.0911    4.2465   -0.5845   H         1 RES1   0.0000
   159 H90       1.9677    5.0900    0.4962   H         1 RES1   0.0000
   160 H91       2.5713    6.6398   -1.1722   H         1 RES1   0.0000
   161 H92       3.3874    7.1546    0.2902   H         1 RES1   0.0000
   162 H93       4.9235    5.3784   -1.5951   H         1 RES1   0.0000
   163 H94       4.6162    7.0323   -2.1049   H         1 RES1   0.0000
   164 H95       5.6718    7.8764   -0.0036   H         1 RES1   0.0000
   165 H96       6.0809    6.2212    0.4421   H         1 RES1   0.0000
   166 H97       7.0426    7.6928   -2.0511   H         1 RES1   0.0000
   167 H98       8.0041    7.2850   -0.6328   H         1 RES1   0.0000
   168 H99       7.4041    6.0027   -1.6834   H         1 RES1   0.0000
   169 H100      2.7492    0.9299    4.9189   H         1 RES1   0.0000
   170 H101      3.0349    2.6579    4.8948   H         1 RES1   0.0000
   171 H102      0.2819    1.4207    5.3170   H         1 RES1   0.0000
   172 H103      1.3991    1.8527    6.5955   H         1 RES1   0.0000
   173 H104      0.0566    3.6968    6.6220   H         1 RES1   0.0000
   174 H105      1.3029    4.2690    5.5418   H         1 RES1   0.0000
   175 H106     -0.2126    3.6443    3.5847   H         1 RES1   0.0000
   176 H107     -1.4376    3.1626    4.7722   H         1 RES1   0.0000
   177 H108     -1.5511    5.4316    5.6700   H         1 RES1   0.0000
   178 H109     -0.2265    5.9572    4.6311   H         1 RES1   0.0000
   179 H110     -1.6100    5.5040    2.6175   H         1 RES1   0.0000
   180 H111     -2.9427    4.9650    3.6493   H         1 RES1   0.0000
   181 H112     -3.0628    7.2117    4.6893   H         1 RES1   0.0000
   182 H113     -1.7126    7.7562    3.7002   H         1 RES1   0.0000
   183 H114     -4.4139    6.8134    2.6257   H         1 RES1   0.0000
   184 H115     -3.8702    8.4864    2.7333   H         1 RES1   0.0000
   185 H116     -3.0589    7.3733    1.6364   H         1 RES1   0.0000
   186 O7       -1.1994    0.4938    2.5299   O.3       1 RES1   0.0000
   187 H117     -1.5464   -0.2127    3.0990   H         1 RES1   0.0000
   188 H118     -1.0589    1.2682    3.0934   H         1 RES1   0.0000
   189 O8       -0.7448   -1.7240   -1.7769   O.3       1 RES1   0.0000
   190 H119     -1.4673   -2.3679   -1.9247   H         1 RES1   0.0000
   191 H120     -0.2362   -1.7237   -2.6093   H         1 RES1   0.0000
@<TRIPOS>BOND
     1     1    13    1
     2     1    15    1
     3     1    18    1
     4     1   105    1
     5     1   107    1
     6     1   110    1
     7     1   186    1
     8     1   189    1
     9     2     3    1
    10     2    36    1
    11     2    37    1
    12     2    38    1
    13     3     4    1
    14     3    39    1
    15     3    40    1
    16     4     5    1
    17     4    41    1
    18     4    42    1
    19     5     6    1
    20     5    43    1
    21     5    44    1
    22     6     7    1
    23     6    45    1
    24     6    46    1
    25     7     8    1
    26     7    47    1
    27     7    48    1
    28     8     9    1
    29     8    49    1
    30     8    50    1
    31     9    10    1
    32     9    51    1
    33     9    52    1
    34    10    11    1
    35    10    12    1
    36    11    53    1
    37    11    54    1
    38    11    55    1
    39    12    13    2
    40    12    14    1
    41    14    15    1
    42    14    56    1
    43    14    57    1
    44    15    16    1
    45    16    17    1
    46    16    58    1
    47    16    59    1
    48    17    18    2
    49    17    19    1
    50    19    20    1
    51    19    28    1
    52    20    21    1
    53    20    60    1
    54    20    61    1
    55    21    22    1
    56    21    62    1
    57    21    63    1
    58    22    23    1
    59    22    64    1
    60    22    65    1
    61    23    24    1
    62    23    66    1
    63    23    67    1
    64    24    25    1
    65    24    68    1
    66    24    69    1
    67    25    26    1
    68    25    70    1
    69    25    71    1
    70    26    27    1
    71    26    72    1
    72    26    73    1
    73    27    74    1
    74    27    75    1
    75    27    76    1
    76    28    29    1
    77    28    77    1
    78    28    78    1
    79    29    30    1
    80    29    79    1
    81    29    80    1
    82    30    31    1
    83    30    81    1
    84    30    82    1
    85    31    32    1
    86    31    83    1
    87    31    84    1
    88    32    33    1
    89    32    85    1
    90    32    86    1
    91    33    34    1
    92    33    87    1
    93    33    88    1
    94    34    35    1
    95    34    89    1
    96    34    90    1
    97    35    91    1
    98    35    92    1
    99    35    93    1
   100    94    95    1
   101    94   128    1
   102    94   129    1
   103    94   130    1
   104    95    96    1
   105    95   131    1
   106    95   132    1
   107    96    97    1
   108    96   133    1
   109    96   134    1
   110    97    98    1
   111    97   135    1
   112    97   136    1
   113    98    99    1
   114    98   137    1
   115    98   138    1
   116    99   100    1
   117    99   139    1
   118    99   140    1
   119   100   101    1
   120   100   141    1
   121   100   142    1
   122   101   102    1
   123   101   143    1
   124   101   144    1
   125   102   103    1
   126   102   104    1
   127   103   145    1
   128   103   146    1
   129   103   147    1
   130   104   105    2
   131   104   106    1
   132   106   107    1
   133   106   148    1
   134   106   149    1
   135   107   108    1
   136   108   109    1
   137   108   150    1
   138   108   151    1
   139   109   110    2
   140   109   111    1
   141   111   112    1
   142   111   120    1
   143   112   113    1
   144   112   152    1
   145   112   153    1
   146   113   114    1
   147   113   154    1
   148   113   155    1
   149   114   115    1
   150   114   156    1
   151   114   157    1
   152   115   116    1
   153   115   158    1
   154   115   159    1
   155   116   117    1
   156   116   160    1
   157   116   161    1
   158   117   118    1
   159   117   162    1
   160   117   163    1
   161   118   119    1
   162   118   164    1
   163   118   165    1
   164   119   166    1
   165   119   167    1
   166   119   168    1
   167   120   121    1
   168   120   169    1
   169   120   170    1
   170   121   122    1
   171   121   171    1
   172   121   172    1
   173   122   123    1
   174   122   173    1
   175   122   174    1
   176   123   124    1
   177   123   175    1
   178   123   176    1
   179   124   125    1
   180   124   177    1
   181   124   178    1
   182   125   126    1
   183   125   179    1
   184   125   180    1
   185   126   127    1
   186   126   181    1
   187   126   182    1
   188   127   183    1
   189   127   184    1
   190   127   185    1
   191   186   187    1
   192   186   188    1
   193   189   190    1
   194   189   191    1
@<TRIPOS>SUBSTRUCTURE
     1 RES1      191 GROUP             0 ****  ****    0  
