@<TRIPOS>MOLECULE
bicapped_trigonal_prismatic_0_nunpairedes_0_charge_3 Charge: 3 Unpaired_Electrons: 3 XTB_Unpaired_Electrons: 0 XTB_Charge: 3
   337   342     1     0     0
SMALL
NoCharges
****
Generated from Architector

@<TRIPOS>ATOM
     1 Er1      -0.0206    0.1001   -0.0065   Er        1 RES1   0.0000
     2 C1        5.4934    3.7322   -2.7925   C.3       1 RES1   0.0000
     3 C2        5.8298    2.3762   -2.1880   C.3       1 RES1   0.0000
     4 C3        5.4437    2.2547   -0.7104   C.3       1 RES1   0.0000
     5 C4        3.9735    1.9031   -0.4692   C.3       1 RES1   0.0000
     6 C5        3.5925    0.4664   -0.8541   C.3       1 RES1   0.0000
     7 C6        4.3744   -0.5955   -0.0686   C.3       1 RES1   0.0000
     8 C7        3.5998   -1.8535    0.3547   C.3       1 RES1   0.0000
     9 C8        2.3364   -1.4767    1.1434   C.3       1 RES1   0.0000
    10 C9        1.7540   -2.4319    2.1944   C.3       1 RES1   0.0000
    11 C10       0.8580   -1.6481    3.1743   C.3       1 RES1   0.0000
    12 C11      -0.0820   -2.4855    4.0540   C.3       1 RES1   0.0000
    13 C12      -1.4050   -2.8554    3.3799   C.3       1 RES1   0.0000
    14 N1       -1.1865   -3.5901    2.1388   N.am      1 RES1   0.0000
    15 C13      -0.8609   -4.9982    2.3175   C.3       1 RES1   0.0000
    16 C14      -2.0115   -5.9248    2.7067   C.3       1 RES1   0.0000
    17 C15      -3.0151   -6.2062    1.5920   C.3       1 RES1   0.0000
    18 C16      -4.0996   -5.1393    1.4206   C.3       1 RES1   0.0000
    19 C17      -5.0885   -5.1175    2.5858   C.3       1 RES1   0.0000
    20 C18      -6.2284   -4.1270    2.3608   C.3       1 RES1   0.0000
    21 C19      -7.3409   -4.2059    3.4163   C.3       1 RES1   0.0000
    22 C20      -7.2093   -3.2249    4.5833   C.3       1 RES1   0.0000
    23 C21      -6.0589   -3.4396    5.5717   C.3       1 RES1   0.0000
    24 C22      -6.2342   -4.6217    6.5360   C.3       1 RES1   0.0000
    25 C23      -5.6085   -5.9356    6.0706   C.3       1 RES1   0.0000
    26 C24      -5.6325   -6.9822    7.1788   C.3       1 RES1   0.0000
    27 C25      -1.0231   -2.8839    1.0378   C.2       1 RES1   0.0000
    28 O1       -1.1751   -1.6359    1.0136   O.2       1 RES1   0.0000
    29 C26      -0.5922   -3.5539   -0.2626   C.3       1 RES1   0.0000
    30 O2        0.0840   -2.5351   -0.9790   O.3       1 RES1   0.0000
    31 C27       0.5815   -2.9493   -2.2429   C.3       1 RES1   0.0000
    32 C28       1.1941   -1.6967   -2.8744   C.3       1 RES1   0.0000
    33 O3        0.3478   -0.5659   -2.6965   O.3       1 RES1   0.0000
    34 C29      -0.7763   -0.5614   -3.5719   C.3       1 RES1   0.0000
    35 C30      -2.0650   -0.6009   -2.7546   C.2       1 RES1   0.0000
    36 O4       -1.9511   -0.5361   -1.5132   O.2       1 RES1   0.0000
    37 N2       -3.2265   -0.6985   -3.3910   N.am      1 RES1   0.0000
    38 C31      -3.3645   -0.6282   -4.8488   C.3       1 RES1   0.0000
    39 C32      -2.7486   -1.7517   -5.7045   C.3       1 RES1   0.0000
    40 C33      -2.8687   -3.1674   -5.1452   C.3       1 RES1   0.0000
    41 C34      -4.3066   -3.6784   -5.1103   C.3       1 RES1   0.0000
    42 C35      -4.3717   -5.1775   -4.8169   C.3       1 RES1   0.0000
    43 C36      -5.7828   -5.6568   -4.4688   C.3       1 RES1   0.0000
    44 C37      -6.2464   -5.2264   -3.0688   C.3       1 RES1   0.0000
    45 C38      -7.1704   -4.0067   -3.0499   C.3       1 RES1   0.0000
    46 C39      -7.3875   -3.5147   -1.6225   C.3       1 RES1   0.0000
    47 C40      -8.2357   -2.2505   -1.5511   C.3       1 RES1   0.0000
    48 C41      -8.4086   -1.7750   -0.1118   C.3       1 RES1   0.0000
    49 C42      -9.2477   -0.5089   -0.0170   C.3       1 RES1   0.0000
    50 C43      -4.4424   -0.9988   -2.6190   C.3       1 RES1   0.0000
    51 C44      -4.8977    0.0323   -1.5794   C.3       1 RES1   0.0000
    52 C45      -5.8648    1.1291   -2.0313   C.3       1 RES1   0.0000
    53 C46      -6.3160    1.9771   -0.8197   C.3       1 RES1   0.0000
    54 C47      -5.7021    3.3811   -0.7973   C.3       1 RES1   0.0000
    55 C48      -5.9518    4.1566    0.5086   C.3       1 RES1   0.0000
    56 C49      -4.9077    3.8560    1.5855   C.3       1 RES1   0.0000
    57 C50      -5.0386    4.6876    2.8656   C.3       1 RES1   0.0000
    58 C51      -6.0970    4.1955    3.8571   C.3       1 RES1   0.0000
    59 C52      -5.6487    3.0699    4.7962   C.3       1 RES1   0.0000
    60 C53      -5.7272    1.6570    4.2201   C.3       1 RES1   0.0000
    61 C54      -5.5937    0.6040    5.3141   C.3       1 RES1   0.0000
    62 H1        5.7894    3.7605   -3.8360   H         1 RES1   0.0000
    63 H2        6.0284    4.5198   -2.2764   H         1 RES1   0.0000
    64 H3        4.4319    3.9548   -2.7294   H         1 RES1   0.0000
    65 H4        6.9053    2.2190   -2.2799   H         1 RES1   0.0000
    66 H5        5.3508    1.5864   -2.7662   H         1 RES1   0.0000
    67 H6        5.6548    3.2062   -0.2214   H         1 RES1   0.0000
    68 H7        6.0714    1.5019   -0.2330   H         1 RES1   0.0000
    69 H8        3.3423    2.5886   -1.0344   H         1 RES1   0.0000
    70 H9        3.7356    2.0512    0.5867   H         1 RES1   0.0000
    71 H10       3.7814    0.3313   -1.9198   H         1 RES1   0.0000
    72 H11       2.4928    0.3718   -0.6985   H         1 RES1   0.0000
    73 H12       4.7810   -0.1403    0.8381   H         1 RES1   0.0000
    74 H13       5.2294   -0.9073   -0.6703   H         1 RES1   0.0000
    75 H14       4.2769   -2.4185    0.9898   H         1 RES1   0.0000
    76 H15       3.3666   -2.4744   -0.5101   H         1 RES1   0.0000
    77 H16       1.5262   -1.2258    0.4117   H         1 RES1   0.0000
    78 H17       2.6032   -0.5708    1.6824   H         1 RES1   0.0000
    79 H18       2.5768   -2.8550    2.7597   H         1 RES1   0.0000
    80 H19       1.2054   -3.2434    1.7238   H         1 RES1   0.0000
    81 H20       0.2507   -0.9062    2.6381   H         1 RES1   0.0000
    82 H21       1.5245   -1.1026    3.8416   H         1 RES1   0.0000
    83 H22      -0.3377   -1.9213    4.9527   H         1 RES1   0.0000
    84 H23       0.4436   -3.3852    4.3769   H         1 RES1   0.0000
    85 H24      -1.9659   -1.9508    3.1392   H         1 RES1   0.0000
    86 H25      -2.0089   -3.4762    4.0422   H         1 RES1   0.0000
    87 H26      -0.1131   -5.0411    3.1143   H         1 RES1   0.0000
    88 H27      -0.4091   -5.3901    1.4092   H         1 RES1   0.0000
    89 H28      -2.5361   -5.5504    3.5814   H         1 RES1   0.0000
    90 H29      -1.5417   -6.8655    2.9969   H         1 RES1   0.0000
    91 H30      -3.5069   -7.1523    1.8142   H         1 RES1   0.0000
    92 H31      -2.4775   -6.3393    0.6493   H         1 RES1   0.0000
    93 H32      -4.6591   -5.3611    0.5074   H         1 RES1   0.0000
    94 H33      -3.6460   -4.1507    1.2928   H         1 RES1   0.0000
    95 H34      -4.5745   -4.8749    3.5134   H         1 RES1   0.0000
    96 H35      -5.5090   -6.1162    2.6977   H         1 RES1   0.0000
    97 H36      -6.6632   -4.3356    1.3809   H         1 RES1   0.0000
    98 H37      -5.8299   -3.1095    2.3293   H         1 RES1   0.0000
    99 H38      -7.4182   -5.2244    3.7932   H         1 RES1   0.0000
   100 H39      -8.2887   -3.9738    2.9255   H         1 RES1   0.0000
   101 H40      -8.1408   -3.2499    5.1516   H         1 RES1   0.0000
   102 H41      -7.1214   -2.2168    4.1663   H         1 RES1   0.0000
   103 H42      -5.9901   -2.5306    6.1745   H         1 RES1   0.0000
   104 H43      -5.1113   -3.5366    5.0376   H         1 RES1   0.0000
   105 H44      -7.2967   -4.7798    6.7249   H         1 RES1   0.0000
   106 H45      -5.7729   -4.3620    7.4923   H         1 RES1   0.0000
   107 H46      -4.5678   -5.7598    5.7771   H         1 RES1   0.0000
   108 H47      -6.1415   -6.3208    5.2007   H         1 RES1   0.0000
   109 H48      -5.0635   -6.6380    8.0405   H         1 RES1   0.0000
   110 H49      -5.2006   -7.9191    6.8327   H         1 RES1   0.0000
   111 H50      -6.6518   -7.1769    7.5033   H         1 RES1   0.0000
   112 H51      -1.4733   -3.9109   -0.8084   H         1 RES1   0.0000
   113 H52       0.0893   -4.3961   -0.1195   H         1 RES1   0.0000
   114 H53      -0.2349   -3.3521   -2.8556   H         1 RES1   0.0000
   115 H54       1.3421   -3.7325   -2.1224   H         1 RES1   0.0000
   116 H55       1.4052   -1.8687   -3.9351   H         1 RES1   0.0000
   117 H56       2.1265   -1.4400   -2.3654   H         1 RES1   0.0000
   118 H57      -0.7308   -1.4199   -4.2422   H         1 RES1   0.0000
   119 H58      -0.7402    0.3461   -4.1822   H         1 RES1   0.0000
   120 H59      -2.9622    0.3261   -5.1965   H         1 RES1   0.0000
   121 H60      -4.4342   -0.6086   -5.0529   H         1 RES1   0.0000
   122 H61      -1.7055   -1.5351   -5.9323   H         1 RES1   0.0000
   123 H62      -3.2787   -1.7216   -6.6570   H         1 RES1   0.0000
   124 H63      -2.4368   -3.2240   -4.1392   H         1 RES1   0.0000
   125 H64      -2.2852   -3.8303   -5.7863   H         1 RES1   0.0000
   126 H65      -4.7768   -3.4882   -6.0754   H         1 RES1   0.0000
   127 H66      -4.8657   -3.1390   -4.3482   H         1 RES1   0.0000
   128 H67      -3.7048   -5.4112   -3.9820   H         1 RES1   0.0000
   129 H68      -4.0105   -5.7252   -5.6906   H         1 RES1   0.0000
   130 H69      -5.7860   -6.7454   -4.5245   H         1 RES1   0.0000
   131 H70      -6.4852   -5.2903   -5.2176   H         1 RES1   0.0000
   132 H71      -5.3706   -5.0145   -2.4474   H         1 RES1   0.0000
   133 H72      -6.7770   -6.0520   -2.5917   H         1 RES1   0.0000
   134 H73      -8.1311   -4.2754   -3.4896   H         1 RES1   0.0000
   135 H74      -6.7556   -3.1974   -3.6559   H         1 RES1   0.0000
   136 H75      -6.4156   -3.3174   -1.1561   H         1 RES1   0.0000
   137 H76      -7.8691   -4.3058   -1.0445   H         1 RES1   0.0000
   138 H77      -9.2143   -2.4437   -1.9900   H         1 RES1   0.0000
   139 H78      -7.7623   -1.4601   -2.1419   H         1 RES1   0.0000
   140 H79      -7.4228   -1.5975    0.3308   H         1 RES1   0.0000
   141 H80      -8.8864   -2.5671    0.4662   H         1 RES1   0.0000
   142 H81      -8.7990    0.2969   -0.5940   H         1 RES1   0.0000
   143 H82      -9.3351   -0.1886    1.0185   H         1 RES1   0.0000
   144 H83     -10.2474   -0.6847   -0.4045   H         1 RES1   0.0000
   145 H84      -4.2427   -1.9368   -2.0930   H         1 RES1   0.0000
   146 H85      -5.2581   -1.1668   -3.3208   H         1 RES1   0.0000
   147 H86      -4.0293    0.4786   -1.1109   H         1 RES1   0.0000
   148 H87      -5.4246   -0.5374   -0.8116   H         1 RES1   0.0000
   149 H88      -6.7339    0.6608   -2.4948   H         1 RES1   0.0000
   150 H89      -5.4149    1.7782   -2.7835   H         1 RES1   0.0000
   151 H90      -6.0641    1.4422    0.0984   H         1 RES1   0.0000
   152 H91      -7.4001    2.0852   -0.8309   H         1 RES1   0.0000
   153 H92      -6.1332    3.9470   -1.6240   H         1 RES1   0.0000
   154 H93      -4.6223    3.3196   -0.9744   H         1 RES1   0.0000
   155 H94      -6.9497    3.9253    0.8805   H         1 RES1   0.0000
   156 H95      -5.9230    5.2272    0.2958   H         1 RES1   0.0000
   157 H96      -3.9219    4.0637    1.1548   H         1 RES1   0.0000
   158 H97      -4.9628    2.8011    1.8498   H         1 RES1   0.0000
   159 H98      -5.2636    5.7172    2.5825   H         1 RES1   0.0000
   160 H99      -4.0715    4.7041    3.3758   H         1 RES1   0.0000
   161 H100     -6.9912    3.8832    3.3186   H         1 RES1   0.0000
   162 H101     -6.3787    5.0456    4.4797   H         1 RES1   0.0000
   163 H102     -6.2987    3.0926    5.6710   H         1 RES1   0.0000
   164 H103     -4.6322    3.2644    5.1470   H         1 RES1   0.0000
   165 H104     -4.9381    1.4963    3.4784   H         1 RES1   0.0000
   166 H105     -6.6859    1.5263    3.7166   H         1 RES1   0.0000
   167 H106     -4.6733    0.7412    5.8783   H         1 RES1   0.0000
   168 H107     -5.5923   -0.3981    4.8909   H         1 RES1   0.0000
   169 H108     -6.4248    0.6730    6.0109   H         1 RES1   0.0000
   170 C55       0.0524   -6.8510   -2.0589   C.3       1 RES1   0.0000
   171 C56       0.3465   -7.3993   -0.6631   C.3       1 RES1   0.0000
   172 C57       1.8361   -7.6754   -0.4263   C.3       1 RES1   0.0000
   173 C58       2.6743   -6.4391   -0.0528   C.3       1 RES1   0.0000
   174 C59       2.9051   -6.2825    1.4575   C.3       1 RES1   0.0000
   175 C60       3.8857   -5.1467    1.7717   C.3       1 RES1   0.0000
   176 C61       4.0387   -4.8621    3.2709   C.3       1 RES1   0.0000
   177 C62       5.0526   -3.7331    3.5840   C.3       1 RES1   0.0000
   178 C63       4.5366   -2.5827    4.4826   C.3       1 RES1   0.0000
   179 C64       4.7827   -1.1772    3.8947   C.3       1 RES1   0.0000
   180 C65       3.9655   -0.0787    4.5998   C.3       1 RES1   0.0000
   181 C66       3.6215    1.1259    3.6908   C.3       1 RES1   0.0000
   182 N3        2.2610    1.6163    3.9263   N.am      1 RES1   0.0000
   183 C67       2.0880    2.3208    5.1922   C.3       1 RES1   0.0000
   184 C68       2.5404    3.7898    5.1543   C.3       1 RES1   0.0000
   185 C69       1.5733    4.7774    4.4950   C.3       1 RES1   0.0000
   186 C70       1.7682    4.9454    2.9803   C.3       1 RES1   0.0000
   187 C71       2.9186    5.9133    2.6996   C.3       1 RES1   0.0000
   188 C72       3.3762    5.9837    1.2437   C.3       1 RES1   0.0000
   189 C73       4.5701    6.9364    1.0727   C.3       1 RES1   0.0000
   190 C74       5.9472    6.2673    1.0449   C.3       1 RES1   0.0000
   191 C75       6.3796    5.4269    2.2525   C.3       1 RES1   0.0000
   192 C76       6.8681    6.2019    3.4877   C.3       1 RES1   0.0000
   193 C77       5.7854    6.5343    4.5130   C.3       1 RES1   0.0000
   194 C78       6.3589    7.1139    5.8012   C.3       1 RES1   0.0000
   195 C79       1.3049    1.4975    3.0174   C.2       1 RES1   0.0000
   196 O5        1.4949    1.1260    1.8354   O.2       1 RES1   0.0000
   197 C80      -0.1587    1.7429    3.4130   C.3       1 RES1   0.0000
   198 O6       -0.9368    1.2294    2.3382   O.3       1 RES1   0.0000
   199 C81      -2.2211    1.8157    2.1909   C.3       1 RES1   0.0000
   200 C82      -2.6710    1.4643    0.7704   C.3       1 RES1   0.0000
   201 O7       -1.5646    1.7724   -0.0891   O.3       1 RES1   0.0000
   202 C83      -1.8125    2.4527   -1.3176   C.3       1 RES1   0.0000
   203 C84      -0.4791    2.3394   -2.0778   C.2       1 RES1   0.0000
   204 O8        0.4714    1.9001   -1.3842   O.2       1 RES1   0.0000
   205 N4       -0.2945    2.7592   -3.3191   N.am      1 RES1   0.0000
   206 C85      -1.2547    3.0190   -4.4035   C.3       1 RES1   0.0000
   207 C86      -2.7637    3.1697   -4.2022   C.3       1 RES1   0.0000
   208 C87      -3.2446    4.4617   -3.5226   C.3       1 RES1   0.0000
   209 C88      -2.3690    5.6853   -3.7745   C.3       1 RES1   0.0000
   210 C89      -2.9372    6.9259   -3.0894   C.3       1 RES1   0.0000
   211 C90      -2.1165    8.1896   -3.3583   C.3       1 RES1   0.0000
   212 C91      -0.6564    8.0983   -2.8881   C.3       1 RES1   0.0000
   213 C92       0.3042    7.7495   -4.0256   C.3       1 RES1   0.0000
   214 C93       1.7390    7.5488   -3.5461   C.3       1 RES1   0.0000
   215 C94       2.6436    7.0881   -4.6859   C.3       1 RES1   0.0000
   216 C95       4.1170    7.0531   -4.2942   C.3       1 RES1   0.0000
   217 C96       4.9815    6.5016   -5.4190   C.3       1 RES1   0.0000
   218 C97       1.1042    3.0295   -3.7432   C.3       1 RES1   0.0000
   219 C98       2.1269    1.8860   -3.7620   C.3       1 RES1   0.0000
   220 C99       2.3291    1.0376   -5.0251   C.3       1 RES1   0.0000
   221 C100      3.5960    0.1943   -4.7921   C.3       1 RES1   0.0000
   222 C101      3.7427   -1.0884   -5.6084   C.3       1 RES1   0.0000
   223 C102      4.8859   -1.9803   -5.0885   C.3       1 RES1   0.0000
   224 C103      4.6506   -2.5603   -3.6872   C.3       1 RES1   0.0000
   225 C104      5.5873   -3.7131   -3.3017   C.3       1 RES1   0.0000
   226 C105      7.0778   -3.3896   -3.1772   C.3       1 RES1   0.0000
   227 C106      7.4849   -2.5703   -1.9435   C.3       1 RES1   0.0000
   228 C107      7.6715   -1.0769   -2.2121   C.3       1 RES1   0.0000
   229 C108      8.3241   -0.3700   -1.0282   C.3       1 RES1   0.0000
   230 H109     -0.9792   -6.5073   -2.1333   H         1 RES1   0.0000
   231 H110      0.1941   -7.6327   -2.7982   H         1 RES1   0.0000
   232 H111      0.7155   -6.0252   -2.3157   H         1 RES1   0.0000
   233 H112     -0.2135   -8.3271   -0.5318   H         1 RES1   0.0000
   234 H113     -0.0215   -6.7037    0.0939   H         1 RES1   0.0000
   235 H114      2.2330   -8.1315   -1.3345   H         1 RES1   0.0000
   236 H115      1.9366   -8.4141    0.3710   H         1 RES1   0.0000
   237 H116      2.1954   -5.5322   -0.4383   H         1 RES1   0.0000
   238 H117      3.6493   -6.5159   -0.5369   H         1 RES1   0.0000
   239 H118      1.9548   -6.0913    1.9637   H         1 RES1   0.0000
   240 H119      3.2986   -7.2179    1.8493   H         1 RES1   0.0000
   241 H120      4.8586   -5.4013    1.3541   H         1 RES1   0.0000
   242 H121      3.5373   -4.2507    1.2609   H         1 RES1   0.0000
   243 H122      4.3545   -5.7824    3.7618   H         1 RES1   0.0000
   244 H123      3.0575   -4.6197    3.6802   H         1 RES1   0.0000
   245 H124      5.4067   -3.3068    2.6452   H         1 RES1   0.0000
   246 H125      5.9275   -4.1792    4.0567   H         1 RES1   0.0000
   247 H126      5.0027   -2.6545    5.4614   H         1 RES1   0.0000
   248 H127      3.4653   -2.6960    4.6525   H         1 RES1   0.0000
   249 H128      4.5079   -1.1956    2.8429   H         1 RES1   0.0000
   250 H129      5.8464   -0.9445    3.9463   H         1 RES1   0.0000
   251 H130      4.5040    0.2552    5.4888   H         1 RES1   0.0000
   252 H131      3.0276   -0.5102    4.9536   H         1 RES1   0.0000
   253 H132      3.6782    0.8280    2.6462   H         1 RES1   0.0000
   254 H133      4.3246    1.9384    3.8479   H         1 RES1   0.0000
   255 H134      2.6938    1.7892    5.9297   H         1 RES1   0.0000
   256 H135      1.0484    2.2835    5.5172   H         1 RES1   0.0000
   257 H136      3.5068    3.8723    4.6605   H         1 RES1   0.0000
   258 H137      2.6787    4.0884    6.1941   H         1 RES1   0.0000
   259 H138      1.7401    5.7521    4.9538   H         1 RES1   0.0000
   260 H139      0.5426    4.5022    4.7290   H         1 RES1   0.0000
   261 H140      0.8537    5.3440    2.5327   H         1 RES1   0.0000
   262 H141      1.9698    3.9797    2.5134   H         1 RES1   0.0000
   263 H142      3.7686    5.6292    3.3099   H         1 RES1   0.0000
   264 H143      2.6091    6.9092    3.0139   H         1 RES1   0.0000
   265 H144      2.5432    6.3356    0.6299   H         1 RES1   0.0000
   266 H145      3.6497    4.9907    0.8838   H         1 RES1   0.0000
   267 H146      4.5406    7.6924    1.8563   H         1 RES1   0.0000
   268 H147      4.4663    7.4589    0.1200   H         1 RES1   0.0000
   269 H148      6.6981    7.0446    0.8924   H         1 RES1   0.0000
   270 H149      5.9829    5.6189    0.1637   H         1 RES1   0.0000
   271 H150      7.2146    4.8086    1.9115   H         1 RES1   0.0000
   272 H151      5.5792    4.7416    2.5384   H         1 RES1   0.0000
   273 H152      7.3547    7.1245    3.1707   H         1 RES1   0.0000
   274 H153      7.6230    5.5956    3.9952   H         1 RES1   0.0000
   275 H154      5.2448    5.6171    4.7721   H         1 RES1   0.0000
   276 H155      5.0777    7.2480    4.0900   H         1 RES1   0.0000
   277 H156      7.0280    6.4010    6.2791   H         1 RES1   0.0000
   278 H157      5.5547    7.3490    6.4971   H         1 RES1   0.0000
   279 H158      6.9159    8.0262    5.6047   H         1 RES1   0.0000
   280 H159     -0.3359    2.8086    3.5512   H         1 RES1   0.0000
   281 H160     -0.4081    1.2122    4.3382   H         1 RES1   0.0000
   282 H161     -2.9249    1.4028    2.9240   H         1 RES1   0.0000
   283 H162     -2.1530    2.9041    2.3170   H         1 RES1   0.0000
   284 H163     -3.5667    2.0287    0.5039   H         1 RES1   0.0000
   285 H164     -2.8676    0.3793    0.7114   H         1 RES1   0.0000
   286 H165     -1.9961    3.5238   -1.1370   H         1 RES1   0.0000
   287 H166     -2.6648    2.0160   -1.8404   H         1 RES1   0.0000
   288 H167     -1.0965    2.2119   -5.1311   H         1 RES1   0.0000
   289 H168     -0.9216    3.9331   -4.8960   H         1 RES1   0.0000
   290 H169     -3.2004    2.2989   -3.7103   H         1 RES1   0.0000
   291 H170     -3.1557    3.1731   -5.2227   H         1 RES1   0.0000
   292 H171     -3.3268    4.3261   -2.4449   H         1 RES1   0.0000
   293 H172     -4.2516    4.6752   -3.8857   H         1 RES1   0.0000
   294 H173     -2.2875    5.8804   -4.8442   H         1 RES1   0.0000
   295 H174     -1.3718    5.4999   -3.3734   H         1 RES1   0.0000
   296 H175     -2.9813    6.7483   -2.0110   H         1 RES1   0.0000
   297 H176     -3.9575    7.0982   -3.4357   H         1 RES1   0.0000
   298 H177     -2.6123    9.0204   -2.8532   H         1 RES1   0.0000
   299 H178     -2.1322    8.4079   -4.4270   H         1 RES1   0.0000
   300 H179     -0.5700    7.3572   -2.0875   H         1 RES1   0.0000
   301 H180     -0.3460    9.0555   -2.4662   H         1 RES1   0.0000
   302 H181      0.2880    8.5607   -4.7541   H         1 RES1   0.0000
   303 H182     -0.0314    6.8458   -4.5388   H         1 RES1   0.0000
   304 H183      1.7646    6.8121   -2.7355   H         1 RES1   0.0000
   305 H184      2.1168    8.4877   -3.1389   H         1 RES1   0.0000
   306 H185      2.5152    7.7622   -5.5338   H         1 RES1   0.0000
   307 H186      2.3307    6.0901   -5.0117   H         1 RES1   0.0000
   308 H187      4.2390    6.4385   -3.3988   H         1 RES1   0.0000
   309 H188      4.4447    8.0643   -4.0490   H         1 RES1   0.0000
   310 H189      4.6835    5.4860   -5.6753   H         1 RES1   0.0000
   311 H190      6.0267    6.4897   -5.1239   H         1 RES1   0.0000
   312 H191      4.8840    7.1168   -6.3094   H         1 RES1   0.0000
   313 H192      1.4698    3.7797   -3.0351   H         1 RES1   0.0000
   314 H193      1.0645    3.4884   -4.7290   H         1 RES1   0.0000
   315 H194      1.9249    1.2209   -2.9276   H         1 RES1   0.0000
   316 H195      3.0843    2.3703   -3.5742   H         1 RES1   0.0000
   317 H196      2.4609    1.6733   -5.9010   H         1 RES1   0.0000
   318 H197      1.4736    0.3844   -5.2146   H         1 RES1   0.0000
   319 H198      3.6001   -0.0985   -3.7432   H         1 RES1   0.0000
   320 H199      4.4698    0.8236   -4.9593   H         1 RES1   0.0000
   321 H200      3.9370   -0.8437   -6.6536   H         1 RES1   0.0000
   322 H201      2.8102   -1.6612   -5.5775   H         1 RES1   0.0000
   323 H202      5.8140   -1.4070   -5.0926   H         1 RES1   0.0000
   324 H203      5.0086   -2.8113   -5.7859   H         1 RES1   0.0000
   325 H204      3.6262   -2.9529   -3.6440   H         1 RES1   0.0000
   326 H205      4.7458   -1.7706   -2.9400   H         1 RES1   0.0000
   327 H206      5.4752   -4.5070   -4.0411   H         1 RES1   0.0000
   328 H207      5.2465   -4.1189   -2.3444   H         1 RES1   0.0000
   329 H208      7.4229   -2.8886   -4.0799   H         1 RES1   0.0000
   330 H209      7.6002   -4.3452   -3.1314   H         1 RES1   0.0000
   331 H210      8.4388   -2.9506   -1.5724   H         1 RES1   0.0000
   332 H211      6.7556   -2.7152   -1.1401   H         1 RES1   0.0000
   333 H212      6.7156   -0.6026   -2.4468   H         1 RES1   0.0000
   334 H213      8.3160   -0.9552   -3.0840   H         1 RES1   0.0000
   335 H214      7.7473   -0.5041   -0.1143   H         1 RES1   0.0000
   336 H215      8.4227    0.6959   -1.2181   H         1 RES1   0.0000
   337 H216      9.3191   -0.7709   -0.8583   H         1 RES1   0.0000
@<TRIPOS>BOND
     1     1    28    1
     2     1    30    1
     3     1    33    1
     4     1    36    1
     5     1   196    1
     6     1   198    1
     7     1   201    1
     8     1   204    1
     9     2     3    1
    10     2    62    1
    11     2    63    1
    12     2    64    1
    13     3     4    1
    14     3    65    1
    15     3    66    1
    16     4     5    1
    17     4    67    1
    18     4    68    1
    19     5     6    1
    20     5    69    1
    21     5    70    1
    22     6     7    1
    23     6    71    1
    24     6    72    1
    25     7     8    1
    26     7    73    1
    27     7    74    1
    28     8     9    1
    29     8    75    1
    30     8    76    1
    31     9    10    1
    32     9    77    1
    33     9    78    1
    34    10    11    1
    35    10    79    1
    36    10    80    1
    37    11    12    1
    38    11    81    1
    39    11    82    1
    40    12    13    1
    41    12    83    1
    42    12    84    1
    43    13    14    1
    44    13    85    1
    45    13    86    1
    46    14    15    1
    47    14    27    1
    48    15    16    1
    49    15    87    1
    50    15    88    1
    51    16    17    1
    52    16    89    1
    53    16    90    1
    54    17    18    1
    55    17    91    1
    56    17    92    1
    57    18    19    1
    58    18    93    1
    59    18    94    1
    60    19    20    1
    61    19    95    1
    62    19    96    1
    63    20    21    1
    64    20    97    1
    65    20    98    1
    66    21    22    1
    67    21    99    1
    68    21   100    1
    69    22    23    1
    70    22   101    1
    71    22   102    1
    72    23    24    1
    73    23   103    1
    74    23   104    1
    75    24    25    1
    76    24   105    1
    77    24   106    1
    78    25    26    1
    79    25   107    1
    80    25   108    1
    81    26   109    1
    82    26   110    1
    83    26   111    1
    84    27    28    2
    85    27    29    1
    86    29    30    1
    87    29   112    1
    88    29   113    1
    89    30    31    1
    90    31    32    1
    91    31   114    1
    92    31   115    1
    93    32    33    1
    94    32   116    1
    95    32   117    1
    96    33    34    1
    97    34    35    1
    98    34   118    1
    99    34   119    1
   100    35    36    2
   101    35    37    1
   102    37    38    1
   103    37    50    1
   104    38    39    1
   105    38   120    1
   106    38   121    1
   107    39    40    1
   108    39   122    1
   109    39   123    1
   110    40    41    1
   111    40   124    1
   112    40   125    1
   113    41    42    1
   114    41   126    1
   115    41   127    1
   116    42    43    1
   117    42   128    1
   118    42   129    1
   119    43    44    1
   120    43   130    1
   121    43   131    1
   122    44    45    1
   123    44   132    1
   124    44   133    1
   125    45    46    1
   126    45   134    1
   127    45   135    1
   128    46    47    1
   129    46   136    1
   130    46   137    1
   131    47    48    1
   132    47   138    1
   133    47   139    1
   134    48    49    1
   135    48   140    1
   136    48   141    1
   137    49   142    1
   138    49   143    1
   139    49   144    1
   140    50    51    1
   141    50   145    1
   142    50   146    1
   143    51    52    1
   144    51   147    1
   145    51   148    1
   146    52    53    1
   147    52   149    1
   148    52   150    1
   149    53    54    1
   150    53   151    1
   151    53   152    1
   152    54    55    1
   153    54   153    1
   154    54   154    1
   155    55    56    1
   156    55   155    1
   157    55   156    1
   158    56    57    1
   159    56   157    1
   160    56   158    1
   161    57    58    1
   162    57   159    1
   163    57   160    1
   164    58    59    1
   165    58   161    1
   166    58   162    1
   167    59    60    1
   168    59   163    1
   169    59   164    1
   170    60    61    1
   171    60   165    1
   172    60   166    1
   173    61   167    1
   174    61   168    1
   175    61   169    1
   176   170   171    1
   177   170   230    1
   178   170   231    1
   179   170   232    1
   180   171   172    1
   181   171   233    1
   182   171   234    1
   183   172   173    1
   184   172   235    1
   185   172   236    1
   186   173   174    1
   187   173   237    1
   188   173   238    1
   189   174   175    1
   190   174   239    1
   191   174   240    1
   192   175   176    1
   193   175   241    1
   194   175   242    1
   195   176   177    1
   196   176   243    1
   197   176   244    1
   198   177   178    1
   199   177   245    1
   200   177   246    1
   201   178   179    1
   202   178   247    1
   203   178   248    1
   204   179   180    1
   205   179   249    1
   206   179   250    1
   207   180   181    1
   208   180   251    1
   209   180   252    1
   210   181   182    1
   211   181   253    1
   212   181   254    1
   213   182   183    1
   214   182   195    1
   215   183   184    1
   216   183   255    1
   217   183   256    1
   218   184   185    1
   219   184   257    1
   220   184   258    1
   221   185   186    1
   222   185   259    1
   223   185   260    1
   224   186   187    1
   225   186   261    1
   226   186   262    1
   227   187   188    1
   228   187   263    1
   229   187   264    1
   230   188   189    1
   231   188   265    1
   232   188   266    1
   233   189   190    1
   234   189   267    1
   235   189   268    1
   236   190   191    1
   237   190   269    1
   238   190   270    1
   239   191   192    1
   240   191   271    1
   241   191   272    1
   242   192   193    1
   243   192   273    1
   244   192   274    1
   245   193   194    1
   246   193   275    1
   247   193   276    1
   248   194   277    1
   249   194   278    1
   250   194   279    1
   251   195   196    2
   252   195   197    1
   253   197   198    1
   254   197   280    1
   255   197   281    1
   256   198   199    1
   257   199   200    1
   258   199   282    1
   259   199   283    1
   260   200   201    1
   261   200   284    1
   262   200   285    1
   263   201   202    1
   264   202   203    1
   265   202   286    1
   266   202   287    1
   267   203   204    2
   268   203   205    1
   269   205   206    1
   270   205   218    1
   271   206   207    1
   272   206   288    1
   273   206   289    1
   274   207   208    1
   275   207   290    1
   276   207   291    1
   277   208   209    1
   278   208   292    1
   279   208   293    1
   280   209   210    1
   281   209   294    1
   282   209   295    1
   283   210   211    1
   284   210   296    1
   285   210   297    1
   286   211   212    1
   287   211   298    1
   288   211   299    1
   289   212   213    1
   290   212   300    1
   291   212   301    1
   292   213   214    1
   293   213   302    1
   294   213   303    1
   295   214   215    1
   296   214   304    1
   297   214   305    1
   298   215   216    1
   299   215   306    1
   300   215   307    1
   301   216   217    1
   302   216   308    1
   303   216   309    1
   304   217   310    1
   305   217   311    1
   306   217   312    1
   307   218   219    1
   308   218   313    1
   309   218   314    1
   310   219   220    1
   311   219   315    1
   312   219   316    1
   313   220   221    1
   314   220   317    1
   315   220   318    1
   316   221   222    1
   317   221   319    1
   318   221   320    1
   319   222   223    1
   320   222   321    1
   321   222   322    1
   322   223   224    1
   323   223   323    1
   324   223   324    1
   325   224   225    1
   326   224   325    1
   327   224   326    1
   328   225   226    1
   329   225   327    1
   330   225   328    1
   331   226   227    1
   332   226   329    1
   333   226   330    1
   334   227   228    1
   335   227   331    1
   336   227   332    1
   337   228   229    1
   338   228   333    1
   339   228   334    1
   340   229   335    1
   341   229   336    1
   342   229   337    1
@<TRIPOS>SUBSTRUCTURE
     1 RES1      337 GROUP             0 ****  ****    0  
