@<TRIPOS>MOLECULE
YEMSEP_geometry_0_nunpairedes_0_charge_2 Charge: 2 Unpaired_Electrons: 3 XTB_Unpaired_Electrons: 0 XTB_Charge: 2
   233   239     1     0     0
SMALL
NoCharges
****
Generated from Architector

@<TRIPOS>ATOM
     1 Er1       0.1436    0.0065   -0.1029   Er        1 RES1   0.0000
     2 C1       -1.8697    5.9482   -1.6293   C.3       1 RES1   0.0000
     3 C2       -1.9828    4.7448   -0.6966   C.3       1 RES1   0.0000
     4 C3       -3.0789    4.8954    0.3617   C.3       1 RES1   0.0000
     5 C4       -3.0749    3.7597    1.3884   C.3       1 RES1   0.0000
     6 C5       -4.3046    3.7725    2.3194   C.3       1 RES1   0.0000
     7 C6       -5.1431    2.4854    2.2634   C.3       1 RES1   0.0000
     8 C7       -5.9078    2.2433    0.9524   C.3       1 RES1   0.0000
     9 C8       -5.0451    1.6045   -0.1408   C.3       1 RES1   0.0000
    10 C9       -5.8097    0.7837   -1.1825   C.3       1 RES1   0.0000
    11 C10      -4.8761   -0.1441   -1.9802   C.3       1 RES1   0.0000
    12 C11      -4.2240    0.4881   -3.2205   C.3       1 RES1   0.0000
    13 C12      -3.0068   -0.3343   -3.6989   C.3       1 RES1   0.0000
    14 N1       -1.7704    0.4385   -3.8764   N.am      1 RES1   0.0000
    15 C13      -1.7743    1.3539   -5.0104   C.3       1 RES1   0.0000
    16 C14      -1.7433    0.6469   -6.3734   C.3       1 RES1   0.0000
    17 C15      -0.4744   -0.1590   -6.6698   C.3       1 RES1   0.0000
    18 C16       0.6824    0.6766   -7.2296   C.3       1 RES1   0.0000
    19 C17       1.6475   -0.1836   -8.0506   C.3       1 RES1   0.0000
    20 C18       2.7277    0.5805   -8.8297   C.3       1 RES1   0.0000
    21 C19       3.9917    0.9744   -8.0557   C.3       1 RES1   0.0000
    22 C20       3.8603    2.1893   -7.1344   C.3       1 RES1   0.0000
    23 C21       3.6241    3.4905   -7.8980   C.3       1 RES1   0.0000
    24 C22       3.4963    4.7123   -6.9870   C.3       1 RES1   0.0000
    25 C23       2.2745    4.6991   -6.0635   C.3       1 RES1   0.0000
    26 C24       0.9498    4.6849   -6.8209   C.3       1 RES1   0.0000
    27 C25      -0.7860    0.3092   -3.0139   C.2       1 RES1   0.0000
    28 O1       -0.8382   -0.4651   -2.0208   O.2       1 RES1   0.0000
    29 C26       0.5238    1.1116   -3.1817   C.3       1 RES1   0.0000
    30 O2        1.4082    0.6361   -2.1623   O.3       1 RES1   0.0000
    31 C27       2.2528    1.5702   -1.4778   C.3       1 RES1   0.0000
    32 C28       3.2821    2.3030   -2.3558   C.3       1 RES1   0.0000
    33 C29       4.5531    2.6419   -1.5585   C.3       1 RES1   0.0000
    34 C30       4.3028    2.5730   -0.0530   C.3       1 RES1   0.0000
    35 N2        3.8664    1.2405    0.3139   N.am      1 RES1   0.0000
    36 C31       4.4889    0.4972    1.4015   C.3       1 RES1   0.0000
    37 C32       4.2893    1.1262    2.7911   C.3       1 RES1   0.0000
    38 C33       5.4578    2.0004    3.2611   C.3       1 RES1   0.0000
    39 C34       5.1391    2.8184    4.5167   C.3       1 RES1   0.0000
    40 C35       4.1127    3.9180    4.2481   C.3       1 RES1   0.0000
    41 C36       3.8575    4.8146    5.4556   C.3       1 RES1   0.0000
    42 C37       2.8548    0.7243   -0.3525   C.2       1 RES1   0.0000
    43 O3        2.3326   -0.3768   -0.0663   O.2       1 RES1   0.0000
    44 H1       -1.1146    5.7596   -2.3922   H         1 RES1   0.0000
    45 H2       -1.5868    6.8505   -1.0903   H         1 RES1   0.0000
    46 H3       -2.8225    6.1401   -2.1202   H         1 RES1   0.0000
    47 H4       -1.0160    4.5788   -0.2110   H         1 RES1   0.0000
    48 H5       -2.1969    3.8600   -1.2980   H         1 RES1   0.0000
    49 H6       -4.0466    4.9063   -0.1371   H         1 RES1   0.0000
    50 H7       -2.9663    5.8490    0.8810   H         1 RES1   0.0000
    51 H8       -2.1527    3.8111    1.9768   H         1 RES1   0.0000
    52 H9       -3.0493    2.8073    0.8657   H         1 RES1   0.0000
    53 H10      -4.9465    4.6235    2.0816   H         1 RES1   0.0000
    54 H11      -3.9716    3.9108    3.3521   H         1 RES1   0.0000
    55 H12      -5.8654    2.5259    3.0847   H         1 RES1   0.0000
    56 H13      -4.4934    1.6226    2.4600   H         1 RES1   0.0000
    57 H14      -6.3278    3.1842    0.5988   H         1 RES1   0.0000
    58 H15      -6.7447    1.5774    1.1679   H         1 RES1   0.0000
    59 H16      -4.3309    0.9333    0.3441   H         1 RES1   0.0000
    60 H17      -4.4784    2.3751   -0.6586   H         1 RES1   0.0000
    61 H18      -6.3578    1.4415   -1.8561   H         1 RES1   0.0000
    62 H19      -6.5425    0.1678   -0.6606   H         1 RES1   0.0000
    63 H20      -5.4266   -1.0283   -2.3090   H         1 RES1   0.0000
    64 H21      -4.0852   -0.4776   -1.3034   H         1 RES1   0.0000
    65 H22      -3.9069    1.4960   -2.9682   H         1 RES1   0.0000
    66 H23      -4.9651    0.5465   -4.0207   H         1 RES1   0.0000
    67 H24      -3.2205   -0.8078   -4.6572   H         1 RES1   0.0000
    68 H25      -2.7877   -1.1100   -2.9666   H         1 RES1   0.0000
    69 H26      -0.9419    2.0518   -4.9574   H         1 RES1   0.0000
    70 H27      -2.7089    1.9197   -4.9374   H         1 RES1   0.0000
    71 H28      -1.8609    1.4151   -7.1402   H         1 RES1   0.0000
    72 H29      -2.6126   -0.0066   -6.4522   H         1 RES1   0.0000
    73 H30      -0.7340   -0.9145   -7.4145   H         1 RES1   0.0000
    74 H31      -0.1521   -0.6986   -5.7737   H         1 RES1   0.0000
    75 H32       1.2120    1.1687   -6.4128   H         1 RES1   0.0000
    76 H33       0.2805    1.4555   -7.8790   H         1 RES1   0.0000
    77 H34       1.0493   -0.7317   -8.7820   H         1 RES1   0.0000
    78 H35       2.1141   -0.9274   -7.4030   H         1 RES1   0.0000
    79 H36       2.2802    1.4635   -9.2870   H         1 RES1   0.0000
    80 H37       3.0532   -0.0701   -9.6442   H         1 RES1   0.0000
    81 H38       4.7774    1.1970   -8.7807   H         1 RES1   0.0000
    82 H39       4.3366    0.1130   -7.4783   H         1 RES1   0.0000
    83 H40       4.7865    2.2906   -6.5612   H         1 RES1   0.0000
    84 H41       3.0491    2.0300   -6.4248   H         1 RES1   0.0000
    85 H42       2.7288    3.4056   -8.5119   H         1 RES1   0.0000
    86 H43       4.4653    3.6543   -8.5729   H         1 RES1   0.0000
    87 H44       3.4394    5.6060   -7.6108   H         1 RES1   0.0000
    88 H45       4.3975    4.7950   -6.3739   H         1 RES1   0.0000
    89 H46       2.3112    5.5962   -5.4395   H         1 RES1   0.0000
    90 H47       2.3216    3.8341   -5.3936   H         1 RES1   0.0000
    91 H48       0.9107    5.5089   -7.5283   H         1 RES1   0.0000
    92 H49       0.1135    4.7900   -6.1319   H         1 RES1   0.0000
    93 H50       0.8231    3.7566   -7.3705   H         1 RES1   0.0000
    94 H51       0.3289    2.1821   -3.0706   H         1 RES1   0.0000
    95 H52       0.9633    0.9092   -4.1667   H         1 RES1   0.0000
    96 H53       1.6331    2.3303   -0.9723   H         1 RES1   0.0000
    97 H54       2.8177    3.2236   -2.7155   H         1 RES1   0.0000
    98 H55       3.5388    1.6856   -3.2169   H         1 RES1   0.0000
    99 H56       4.9016    3.6415   -1.8196   H         1 RES1   0.0000
   100 H57       5.3478    1.9409   -1.8127   H         1 RES1   0.0000
   101 H58       3.5313    3.3032    0.2254   H         1 RES1   0.0000
   102 H59       5.2136    2.8062    0.4981   H         1 RES1   0.0000
   103 H60       5.5544    0.3881    1.1868   H         1 RES1   0.0000
   104 H61       4.0348   -0.4962    1.3838   H         1 RES1   0.0000
   105 H62       4.1667    0.3224    3.5255   H         1 RES1   0.0000
   106 H63       3.3659    1.7076    2.7634   H         1 RES1   0.0000
   107 H64       5.7456    2.6956    2.4725   H         1 RES1   0.0000
   108 H65       6.3125    1.3535    3.4647   H         1 RES1   0.0000
   109 H66       6.0597    3.2832    4.8672   H         1 RES1   0.0000
   110 H67       4.7766    2.1649    5.3124   H         1 RES1   0.0000
   111 H68       3.1689    3.4521    3.9554   H         1 RES1   0.0000
   112 H69       4.4606    4.5365    3.4150   H         1 RES1   0.0000
   113 H70       3.5293    4.2313    6.3131   H         1 RES1   0.0000
   114 H71       3.0850    5.5448    5.2218   H         1 RES1   0.0000
   115 H72       4.7593    5.3518    5.7361   H         1 RES1   0.0000
   116 C38       7.3073   -1.0597   -0.6108   C.3       1 RES1   0.0000
   117 C39       6.2277   -2.0426   -1.0604   C.3       1 RES1   0.0000
   118 C40       5.9191   -1.9431   -2.5552   C.3       1 RES1   0.0000
   119 C41       5.2723   -0.6090   -2.9171   C.3       1 RES1   0.0000
   120 C42       4.8757   -0.4764   -4.3926   C.3       1 RES1   0.0000
   121 C43       3.4191   -0.8389   -4.6843   C.3       1 RES1   0.0000
   122 C44       3.1127   -2.3405   -4.6690   C.3       1 RES1   0.0000
   123 C45       2.3926   -2.7418   -3.3845   C.3       1 RES1   0.0000
   124 C46       2.2762   -4.2558   -3.2263   C.3       1 RES1   0.0000
   125 C47       1.2983   -4.6509   -2.1195   C.3       1 RES1   0.0000
   126 C48       1.6698   -4.0692   -0.7551   C.3       1 RES1   0.0000
   127 C49       0.6372   -4.4831    0.2938   C.3       1 RES1   0.0000
   128 N3        0.8315   -3.7529    1.5451   N.am      1 RES1   0.0000
   129 C50       1.5709   -4.4317    2.5909   C.3       1 RES1   0.0000
   130 C51       0.7137   -5.4581    3.3435   C.3       1 RES1   0.0000
   131 C52      -0.3623   -4.8204    4.2241   C.3       1 RES1   0.0000
   132 C53       0.2091   -4.1532    5.4761   C.3       1 RES1   0.0000
   133 C54      -0.8835   -3.5097    6.3314   C.3       1 RES1   0.0000
   134 C55      -0.3903   -2.9273    7.6628   C.3       1 RES1   0.0000
   135 C56       0.1365   -1.4889    7.6043   C.3       1 RES1   0.0000
   136 C57       1.5191   -1.2908    6.9746   C.3       1 RES1   0.0000
   137 C58       2.6271   -2.0224    7.7293   C.3       1 RES1   0.0000
   138 C59       4.0258   -1.7362    7.1811   C.3       1 RES1   0.0000
   139 C60       4.3011   -2.3236    5.7936   C.3       1 RES1   0.0000
   140 C61       4.2910   -3.8494    5.7759   C.3       1 RES1   0.0000
   141 C62       0.3935   -2.5120    1.5716   C.2       1 RES1   0.0000
   142 O4       -0.1731   -2.0018    0.5796   O.2       1 RES1   0.0000
   143 C63       0.5521   -1.6503    2.8209   C.3       1 RES1   0.0000
   144 O5        0.1473   -0.3455    2.4527   O.3       1 RES1   0.0000
   145 C64       0.5422    0.6600    3.3860   C.3       1 RES1   0.0000
   146 C65      -0.4164    0.8079    4.5782   C.3       1 RES1   0.0000
   147 C66      -0.8943    2.2501    4.7594   C.3       1 RES1   0.0000
   148 C67       0.2465    3.2201    4.4725   C.3       1 RES1   0.0000
   149 N4        0.6211    3.1087    3.0764   N.am      1 RES1   0.0000
   150 C68       1.0574    4.2561    2.2805   C.3       1 RES1   0.0000
   151 C69       0.2918    5.5688    2.4184   C.3       1 RES1   0.0000
   152 C70       1.1792    6.7555    2.0133   C.3       1 RES1   0.0000
   153 C71       1.4056    6.9367    0.5107   C.3       1 RES1   0.0000
   154 C72       2.4261    5.9949   -0.1316   C.3       1 RES1   0.0000
   155 C73       2.8684    6.5188   -1.4957   C.3       1 RES1   0.0000
   156 C74       0.7216    1.9106    2.5283   C.2       1 RES1   0.0000
   157 O6        1.0481    1.7252    1.3314   O.2       1 RES1   0.0000
   158 H73       7.5948   -1.2514    0.4213   H         1 RES1   0.0000
   159 H74       6.9677   -0.0272   -0.6858   H         1 RES1   0.0000
   160 H75       8.1940   -1.1678   -1.2314   H         1 RES1   0.0000
   161 H76       5.3060   -1.8676   -0.4936   H         1 RES1   0.0000
   162 H77       6.5704   -3.0558   -0.8386   H         1 RES1   0.0000
   163 H78       5.2560   -2.7615   -2.8295   H         1 RES1   0.0000
   164 H79       6.8453   -2.0583   -3.1192   H         1 RES1   0.0000
   165 H80       5.9902    0.1795   -2.6856   H         1 RES1   0.0000
   166 H81       4.3920   -0.4605   -2.2809   H         1 RES1   0.0000
   167 H82       5.5363   -1.0896   -5.0074   H         1 RES1   0.0000
   168 H83       5.0311    0.5604   -4.7053   H         1 RES1   0.0000
   169 H84       3.1693   -0.4222   -5.6572   H         1 RES1   0.0000
   170 H85       2.7786   -0.3514   -3.9475   H         1 RES1   0.0000
   171 H86       4.0389   -2.9057   -4.7700   H         1 RES1   0.0000
   172 H87       2.4894   -2.6067   -5.5241   H         1 RES1   0.0000
   173 H88       1.3906   -2.2988   -3.3764   H         1 RES1   0.0000
   174 H89       2.9386   -2.3303   -2.5353   H         1 RES1   0.0000
   175 H90       3.2628   -4.6746   -3.0184   H         1 RES1   0.0000
   176 H91       1.9232   -4.6945   -4.1610   H         1 RES1   0.0000
   177 H92       1.2531   -5.7410   -2.0456   H         1 RES1   0.0000
   178 H93       0.3044   -4.2844   -2.3871   H         1 RES1   0.0000
   179 H94       1.6797   -2.9739   -0.8136   H         1 RES1   0.0000
   180 H95       2.6633   -4.4156   -0.4598   H         1 RES1   0.0000
   181 H96       0.7014   -5.5500    0.5006   H         1 RES1   0.0000
   182 H97      -0.3642   -4.2483   -0.0795   H         1 RES1   0.0000
   183 H98       1.9912   -3.7127    3.2938   H         1 RES1   0.0000
   184 H99       2.4021   -4.9459    2.1032   H         1 RES1   0.0000
   185 H100      1.3826   -6.0527    3.9665   H         1 RES1   0.0000
   186 H101      0.2434   -6.1350    2.6265   H         1 RES1   0.0000
   187 H102     -1.0532   -5.6032    4.5402   H         1 RES1   0.0000
   188 H103     -0.9356   -4.1013    3.6322   H         1 RES1   0.0000
   189 H104      0.9498   -3.4050    5.1962   H         1 RES1   0.0000
   190 H105      0.7231   -4.9079    6.0732   H         1 RES1   0.0000
   191 H106     -1.6230   -4.2804    6.5535   H         1 RES1   0.0000
   192 H107     -1.3972   -2.7316    5.7587   H         1 RES1   0.0000
   193 H108      0.3653   -3.5865    8.0899   H         1 RES1   0.0000
   194 H109     -1.2352   -2.9213    8.3543   H         1 RES1   0.0000
   195 H110      0.1846   -1.1067    8.6260   H         1 RES1   0.0000
   196 H111     -0.5991   -0.8796    7.0704   H         1 RES1   0.0000
   197 H112      1.7534   -0.2206    6.9853   H         1 RES1   0.0000
   198 H113      1.5066   -1.6137    5.9320   H         1 RES1   0.0000
   199 H114      2.4449   -3.0949    7.7069   H         1 RES1   0.0000
   200 H115      2.5961   -1.7055    8.7720   H         1 RES1   0.0000
   201 H116      4.7632   -2.1478    7.8720   H         1 RES1   0.0000
   202 H117      4.1800   -0.6543    7.1452   H         1 RES1   0.0000
   203 H118      5.2857   -1.9796    5.4666   H         1 RES1   0.0000
   204 H119      3.5685   -1.9438    5.0709   H         1 RES1   0.0000
   205 H120      4.9840   -4.2363    6.5175   H         1 RES1   0.0000
   206 H121      4.5970   -4.2219    4.8003   H         1 RES1   0.0000
   207 H122      3.3025   -4.2429    5.9965   H         1 RES1   0.0000
   208 H123      1.6038   -1.6375    3.1445   H         1 RES1   0.0000
   209 H124     -0.0812   -2.0461    3.6217   H         1 RES1   0.0000
   210 H125      1.5543    0.4192    3.7538   H         1 RES1   0.0000
   211 H126      0.0910    0.4836    5.4877   H         1 RES1   0.0000
   212 H127     -1.2706    0.1520    4.4121   H         1 RES1   0.0000
   213 H128     -1.2450    2.3843    5.7836   H         1 RES1   0.0000
   214 H129     -1.7224    2.4727    4.0837   H         1 RES1   0.0000
   215 H130      1.1051    2.9944    5.1148   H         1 RES1   0.0000
   216 H131     -0.0616    4.2466    4.6719   H         1 RES1   0.0000
   217 H132      2.1052    4.4525    2.5312   H         1 RES1   0.0000
   218 H133      1.0061    3.9206    1.2452   H         1 RES1   0.0000
   219 H134     -0.0199    5.7298    3.4509   H         1 RES1   0.0000
   220 H135     -0.6094    5.5548    1.8045   H         1 RES1   0.0000
   221 H136      2.1429    6.6631    2.5214   H         1 RES1   0.0000
   222 H137      0.6971    7.6605    2.3867   H         1 RES1   0.0000
   223 H138      1.7655    7.9544    0.3645   H         1 RES1   0.0000
   224 H139      0.4548    6.8473   -0.0148   H         1 RES1   0.0000
   225 H140      1.9941    4.9984   -0.2633   H         1 RES1   0.0000
   226 H141      3.3047    5.9047    0.5141   H         1 RES1   0.0000
   227 H142      2.0114    6.6525   -2.1516   H         1 RES1   0.0000
   228 H143      3.5645    5.8295   -1.9700   H         1 RES1   0.0000
   229 H144      3.3641    7.4800   -1.3902   H         1 RES1   0.0000
   230 N5       -1.6188    1.3742   -0.6082   N.3       1 RES1   0.0000
   231 O7       -2.4461    1.6851   -1.3951   O.2       1 RES1   0.0000
   232 O8       -1.8171    0.5737    0.3049   O.co2     1 RES1   0.0000
   233 O9       -0.4880    1.8867   -0.6870   O.co2     1 RES1   0.0000
@<TRIPOS>BOND
     1     1    28    1
     2     1    30    1
     3     1    43    1
     4     1   142    1
     5     1   144    1
     6     1   157    1
     7     1   232    1
     8     1   233    1
     9     2     3    1
    10     2    44    1
    11     2    45    1
    12     2    46    1
    13     3     4    1
    14     3    47    1
    15     3    48    1
    16     4     5    1
    17     4    49    1
    18     4    50    1
    19     5     6    1
    20     5    51    1
    21     5    52    1
    22     6     7    1
    23     6    53    1
    24     6    54    1
    25     7     8    1
    26     7    55    1
    27     7    56    1
    28     8     9    1
    29     8    57    1
    30     8    58    1
    31     9    10    1
    32     9    59    1
    33     9    60    1
    34    10    11    1
    35    10    61    1
    36    10    62    1
    37    11    12    1
    38    11    63    1
    39    11    64    1
    40    12    13    1
    41    12    65    1
    42    12    66    1
    43    13    14    1
    44    13    67    1
    45    13    68    1
    46    14    15    1
    47    14    27    1
    48    15    16    1
    49    15    69    1
    50    15    70    1
    51    16    17    1
    52    16    71    1
    53    16    72    1
    54    17    18    1
    55    17    73    1
    56    17    74    1
    57    18    19    1
    58    18    75    1
    59    18    76    1
    60    19    20    1
    61    19    77    1
    62    19    78    1
    63    20    21    1
    64    20    79    1
    65    20    80    1
    66    21    22    1
    67    21    81    1
    68    21    82    1
    69    22    23    1
    70    22    83    1
    71    22    84    1
    72    23    24    1
    73    23    85    1
    74    23    86    1
    75    24    25    1
    76    24    87    1
    77    24    88    1
    78    25    26    1
    79    25    89    1
    80    25    90    1
    81    26    91    1
    82    26    92    1
    83    26    93    1
    84    27    28    2
    85    27    29    1
    86    29    30    1
    87    29    94    1
    88    29    95    1
    89    30    31    1
    90    31    32    1
    91    31    42    1
    92    31    96    1
    93    32    33    1
    94    32    97    1
    95    32    98    1
    96    33    34    1
    97    33    99    1
    98    33   100    1
    99    34    35    1
   100    34   101    1
   101    34   102    1
   102    35    36    1
   103    35    42    1
   104    36    37    1
   105    36   103    1
   106    36   104    1
   107    37    38    1
   108    37   105    1
   109    37   106    1
   110    38    39    1
   111    38   107    1
   112    38   108    1
   113    39    40    1
   114    39   109    1
   115    39   110    1
   116    40    41    1
   117    40   111    1
   118    40   112    1
   119    41   113    1
   120    41   114    1
   121    41   115    1
   122    42    43    2
   123   116   117    1
   124   116   158    1
   125   116   159    1
   126   116   160    1
   127   117   118    1
   128   117   161    1
   129   117   162    1
   130   118   119    1
   131   118   163    1
   132   118   164    1
   133   119   120    1
   134   119   165    1
   135   119   166    1
   136   120   121    1
   137   120   167    1
   138   120   168    1
   139   121   122    1
   140   121   169    1
   141   121   170    1
   142   122   123    1
   143   122   171    1
   144   122   172    1
   145   123   124    1
   146   123   173    1
   147   123   174    1
   148   124   125    1
   149   124   175    1
   150   124   176    1
   151   125   126    1
   152   125   177    1
   153   125   178    1
   154   126   127    1
   155   126   179    1
   156   126   180    1
   157   127   128    1
   158   127   181    1
   159   127   182    1
   160   128   129    1
   161   128   141    1
   162   129   130    1
   163   129   183    1
   164   129   184    1
   165   130   131    1
   166   130   185    1
   167   130   186    1
   168   131   132    1
   169   131   187    1
   170   131   188    1
   171   132   133    1
   172   132   189    1
   173   132   190    1
   174   133   134    1
   175   133   191    1
   176   133   192    1
   177   134   135    1
   178   134   193    1
   179   134   194    1
   180   135   136    1
   181   135   195    1
   182   135   196    1
   183   136   137    1
   184   136   197    1
   185   136   198    1
   186   137   138    1
   187   137   199    1
   188   137   200    1
   189   138   139    1
   190   138   201    1
   191   138   202    1
   192   139   140    1
   193   139   203    1
   194   139   204    1
   195   140   205    1
   196   140   206    1
   197   140   207    1
   198   141   142    2
   199   141   143    1
   200   143   144    1
   201   143   208    1
   202   143   209    1
   203   144   145    1
   204   145   146    1
   205   145   156    1
   206   145   210    1
   207   146   147    1
   208   146   211    1
   209   146   212    1
   210   147   148    1
   211   147   213    1
   212   147   214    1
   213   148   149    1
   214   148   215    1
   215   148   216    1
   216   149   150    1
   217   149   156    1
   218   150   151    1
   219   150   217    1
   220   150   218    1
   221   151   152    1
   222   151   219    1
   223   151   220    1
   224   152   153    1
   225   152   221    1
   226   152   222    1
   227   153   154    1
   228   153   223    1
   229   153   224    1
   230   154   155    1
   231   154   225    1
   232   154   226    1
   233   155   227    1
   234   155   228    1
   235   155   229    1
   236   156   157    2
   237   230   231    2
   238   230   232    1
   239   230   233    1
@<TRIPOS>SUBSTRUCTURE
     1 RES1      233 GROUP             0 ****  ****    0  
