@<TRIPOS>MOLECULE
bicapped_trigonal_prismatic_0_nunpairedes_0_charge_2 Charge: 2 Unpaired_Electrons: 3 XTB_Unpaired_Electrons: 0 XTB_Charge: 2
   231   235     1     0     0
SMALL
NoCharges
****
Generated from Architector

@<TRIPOS>ATOM
     1 Er1       0.3172   -0.1994   -0.2027   Er        1 RES1   0.0000
     2 C1       -5.5447    2.3093    1.3226   C.3       1 RES1   0.0000
     3 C2       -5.6446    2.1335   -0.1866   C.3       1 RES1   0.0000
     4 C3       -4.9322    3.2526   -0.9452   C.3       1 RES1   0.0000
     5 C4       -3.4184    3.2536   -0.7545   C.3       1 RES1   0.0000
     6 C5       -2.6960    4.2206   -1.6913   C.3       1 RES1   0.0000
     7 C6       -2.9919    5.6794   -1.3263   C.3       1 RES1   0.0000
     8 C7       -1.8167    6.6387   -1.5395   C.3       1 RES1   0.0000
     9 C8       -0.4823    6.1496   -0.9667   C.3       1 RES1   0.0000
    10 C9       -0.5839    5.5726    0.4455   C.3       1 RES1   0.0000
    11 C10       0.6971    4.8110    0.8068   C.3       1 RES1   0.0000
    12 N1        0.5586    3.8780    1.9248   N.am      1 RES1   0.0000
    13 C11       0.7366    4.4644    3.2510   C.3       1 RES1   0.0000
    14 C12      -0.3226    5.5248    3.5943   C.3       1 RES1   0.0000
    15 C13      -0.3606    5.8351    5.0944   C.3       1 RES1   0.0000
    16 C14      -0.9744    4.7218    5.9543   C.3       1 RES1   0.0000
    17 C15      -2.4248    4.9749    6.3745   C.3       1 RES1   0.0000
    18 C16      -3.4369    5.0082    5.2172   C.3       1 RES1   0.0000
    19 C17      -3.9330    6.4240    4.9198   C.3       1 RES1   0.0000
    20 C18      -4.9641    6.4829    3.7902   C.3       1 RES1   0.0000
    21 C19      -4.3713    6.4056    2.3819   C.3       1 RES1   0.0000
    22 C20      -3.5700    7.6523    2.0215   C.3       1 RES1   0.0000
    23 C21       0.3945    2.5834    1.6854   C.2       1 RES1   0.0000
    24 O1        0.1878    2.0929    0.5531   O.2       1 RES1   0.0000
    25 C22       0.4759    1.6384    2.8952   C.3       1 RES1   0.0000
    26 O2        0.3774    0.2833    2.4696   O.3       1 RES1   0.0000
    27 C23       1.4472   -0.5821    2.8447   C.3       1 RES1   0.0000
    28 C24       2.4282   -0.6861    1.6619   C.2       1 RES1   0.0000
    29 O3        2.2713    0.1606    0.7530   O.2       1 RES1   0.0000
    30 N2        3.3817   -1.5971    1.6360   N.am      1 RES1   0.0000
    31 C25       4.2462   -1.6639    0.4553   C.3       1 RES1   0.0000
    32 C26       5.1691   -0.4569    0.3027   C.3       1 RES1   0.0000
    33 C27       6.0421   -0.6135   -0.9466   C.3       1 RES1   0.0000
    34 C28       5.2709   -0.6037   -2.2683   C.3       1 RES1   0.0000
    35 C29       4.5377    0.7062   -2.5501   C.3       1 RES1   0.0000
    36 C30       3.9639    0.7039   -3.9629   C.3       1 RES1   0.0000
    37 C31       3.4494   -2.7235    2.5480   C.3       1 RES1   0.0000
    38 C32       2.8459   -3.9880    1.9100   C.3       1 RES1   0.0000
    39 C33       1.4248   -3.8150    1.3682   C.3       1 RES1   0.0000
    40 C34       0.9633   -5.0234    0.5403   C.3       1 RES1   0.0000
    41 C35       0.6505   -6.2566    1.3900   C.3       1 RES1   0.0000
    42 C36      -0.0805   -7.3308    0.5944   C.3       1 RES1   0.0000
    43 H1       -6.1291    1.5540    1.8411   H         1 RES1   0.0000
    44 H2       -5.9312    3.2858    1.5980   H         1 RES1   0.0000
    45 H3       -4.5145    2.2449    1.6632   H         1 RES1   0.0000
    46 H4       -6.7004    2.1380   -0.4622   H         1 RES1   0.0000
    47 H5       -5.2374    1.1594   -0.4827   H         1 RES1   0.0000
    48 H6       -5.3339    4.2061   -0.6040   H         1 RES1   0.0000
    49 H7       -5.1551    3.1675   -2.0090   H         1 RES1   0.0000
    50 H8       -3.0095    2.2541   -0.9074   H         1 RES1   0.0000
    51 H9       -3.1829    3.5325    0.2747   H         1 RES1   0.0000
    52 H10      -2.9866    4.0255   -2.7247   H         1 RES1   0.0000
    53 H11      -1.6313    4.0051   -1.6048   H         1 RES1   0.0000
    54 H12      -3.2928    5.7167   -0.2778   H         1 RES1   0.0000
    55 H13      -3.8417    6.0341   -1.9121   H         1 RES1   0.0000
    56 H14      -2.0765    7.5917   -1.0795   H         1 RES1   0.0000
    57 H15      -1.6783    6.8258   -2.6058   H         1 RES1   0.0000
    58 H16       0.2239    6.9797   -0.9520   H         1 RES1   0.0000
    59 H17      -0.0641    5.3920   -1.6277   H         1 RES1   0.0000
    60 H18      -1.4188    4.8803    0.5099   H         1 RES1   0.0000
    61 H19      -0.7631    6.3891    1.1416   H         1 RES1   0.0000
    62 H20       1.4881    5.5206    1.0600   H         1 RES1   0.0000
    63 H21       1.0185    4.2199   -0.0549   H         1 RES1   0.0000
    64 H22       1.7296    4.9208    3.2851   H         1 RES1   0.0000
    65 H23       0.7029    3.6958    4.0175   H         1 RES1   0.0000
    66 H24      -1.3007    5.1677    3.2748   H         1 RES1   0.0000
    67 H25      -0.1000    6.4498    3.0638   H         1 RES1   0.0000
    68 H26      -0.9410    6.7447    5.2446   H         1 RES1   0.0000
    69 H27       0.6564    6.0530    5.4221   H         1 RES1   0.0000
    70 H28      -0.3861    4.6131    6.8669   H         1 RES1   0.0000
    71 H29      -0.9234    3.7676    5.4236   H         1 RES1   0.0000
    72 H30      -2.4686    5.9191    6.9190   H         1 RES1   0.0000
    73 H31      -2.7034    4.1903    7.0810   H         1 RES1   0.0000
    74 H32      -4.2997    4.3876    5.4677   H         1 RES1   0.0000
    75 H33      -2.9894    4.5778    4.3194   H         1 RES1   0.0000
    76 H34      -3.0860    7.0638    4.6728   H         1 RES1   0.0000
    77 H35      -4.3901    6.8238    5.8272   H         1 RES1   0.0000
    78 H36      -5.5161    7.4212    3.8627   H         1 RES1   0.0000
    79 H37      -5.6816    5.6707    3.9293   H         1 RES1   0.0000
    80 H38      -5.1943    6.3003    1.6710   H         1 RES1   0.0000
    81 H39      -3.7413    5.5170    2.2860   H         1 RES1   0.0000
    82 H40      -4.1769    8.5410    2.1735   H         1 RES1   0.0000
    83 H41      -3.2625    7.6297    0.9792   H         1 RES1   0.0000
    84 H42      -2.6772    7.7383    2.6363   H         1 RES1   0.0000
    85 H43      -0.3640    1.8308    3.5773   H         1 RES1   0.0000
    86 H44       1.4143    1.8018    3.4322   H         1 RES1   0.0000
    87 H45       0.9703   -1.5394    3.0783   H         1 RES1   0.0000
    88 H46       1.9778   -0.2066    3.7257   H         1 RES1   0.0000
    89 H47       3.6082   -1.7222   -0.4288   H         1 RES1   0.0000
    90 H48       4.8434   -2.5705    0.5259   H         1 RES1   0.0000
    91 H49       5.8116   -0.3678    1.1816   H         1 RES1   0.0000
    92 H50       4.5687    0.4484    0.2209   H         1 RES1   0.0000
    93 H51       6.6076   -1.5467   -0.8734   H         1 RES1   0.0000
    94 H52       6.7654    0.2037   -0.9652   H         1 RES1   0.0000
    95 H53       4.5523   -1.4239   -2.3060   H         1 RES1   0.0000
    96 H54       5.9928   -0.7731   -3.0698   H         1 RES1   0.0000
    97 H55       5.2315    1.5429   -2.4423   H         1 RES1   0.0000
    98 H56       3.7167    0.8438   -1.8376   H         1 RES1   0.0000
    99 H57       4.7427    0.4874   -4.6920   H         1 RES1   0.0000
   100 H58       3.5356    1.6734   -4.2079   H         1 RES1   0.0000
   101 H59       3.1889   -0.0560   -4.0545   H         1 RES1   0.0000
   102 H60       2.9490   -2.4836    3.4849   H         1 RES1   0.0000
   103 H61       4.5018   -2.9053    2.7772   H         1 RES1   0.0000
   104 H62       2.8487   -4.7758    2.6625   H         1 RES1   0.0000
   105 H63       3.4871   -4.3199    1.0930   H         1 RES1   0.0000
   106 H64       1.3671   -2.9211    0.7245   H         1 RES1   0.0000
   107 H65       0.7314   -3.6729    2.2003   H         1 RES1   0.0000
   108 H66       1.7328   -5.2748   -0.1936   H         1 RES1   0.0000
   109 H67       0.0661   -4.7416   -0.0191   H         1 RES1   0.0000
   110 H68       0.0298   -5.9646    2.2414   H         1 RES1   0.0000
   111 H69       1.5767   -6.6758    1.7830   H         1 RES1   0.0000
   112 H70      -1.0162   -6.9482    0.1920   H         1 RES1   0.0000
   113 H71      -0.3051   -8.1802    1.2333   H         1 RES1   0.0000
   114 H72       0.5313   -7.6797   -0.2327   H         1 RES1   0.0000
   115 C37       1.3189    1.6241    6.4748   C.3       1 RES1   0.0000
   116 C38       1.5701    0.8218    7.7477   C.3       1 RES1   0.0000
   117 C39       2.1568   -0.5636    7.4766   C.3       1 RES1   0.0000
   118 C40       1.2012   -1.4897    6.7276   C.3       1 RES1   0.0000
   119 C41       1.7841   -2.8941    6.5607   C.3       1 RES1   0.0000
   120 C42       1.0391   -3.7198    5.5127   C.3       1 RES1   0.0000
   121 C43      -0.3913   -4.0730    5.9220   C.3       1 RES1   0.0000
   122 C44      -1.2542   -4.4754    4.7218   C.3       1 RES1   0.0000
   123 C45      -1.7769   -3.2594    3.9518   C.3       1 RES1   0.0000
   124 C46      -2.3103   -3.6343    2.5675   C.3       1 RES1   0.0000
   125 N3       -2.9538   -2.4831    1.9417   N.am      1 RES1   0.0000
   126 C47      -4.4057   -2.3996    2.0475   C.3       1 RES1   0.0000
   127 C48      -5.1426   -2.7386    0.7373   C.3       1 RES1   0.0000
   128 C49      -4.5193   -3.9070   -0.0243   C.3       1 RES1   0.0000
   129 C50      -5.2461   -4.1790   -1.3424   C.3       1 RES1   0.0000
   130 C51      -4.5090   -5.2079   -2.2032   C.3       1 RES1   0.0000
   131 C52      -3.2748   -4.6342   -2.9011   C.3       1 RES1   0.0000
   132 C53      -2.5684   -5.6662   -3.7811   C.3       1 RES1   0.0000
   133 C54      -1.7855   -6.7057   -2.9849   C.3       1 RES1   0.0000
   134 C55      -1.0908   -7.7082   -3.9022   C.3       1 RES1   0.0000
   135 C56      -0.2524   -8.7122   -3.1202   C.3       1 RES1   0.0000
   136 C57      -2.2076   -1.5654    1.3553   C.2       1 RES1   0.0000
   137 O4       -0.9655   -1.6416    1.2441   O.2       1 RES1   0.0000
   138 C58      -2.8692   -0.2857    0.8335   C.3       1 RES1   0.0000
   139 O5       -2.1100    0.2382   -0.2492   O.3       1 RES1   0.0000
   140 C59      -2.6148   -0.1575   -1.5312   C.3       1 RES1   0.0000
   141 C60      -1.6316    0.3804   -2.5704   C.2       1 RES1   0.0000
   142 O6       -0.4177    0.3942   -2.2555   O.2       1 RES1   0.0000
   143 N4       -2.0736    0.7568   -3.7550   N.am      1 RES1   0.0000
   144 C61      -1.0821    1.0953   -4.7695   C.3       1 RES1   0.0000
   145 C62      -0.6579    2.5634   -4.6833   C.3       1 RES1   0.0000
   146 C63       0.6648    2.7601   -5.4195   C.3       1 RES1   0.0000
   147 C64       1.0689    4.2253   -5.5744   C.3       1 RES1   0.0000
   148 C65       1.1724    4.9867   -4.2538   C.3       1 RES1   0.0000
   149 C66       2.1545    4.3651   -3.2651   C.3       1 RES1   0.0000
   150 C67      -3.4494    1.1664   -4.0169   C.3       1 RES1   0.0000
   151 C68      -4.4676    0.0705   -4.3393   C.3       1 RES1   0.0000
   152 C69      -5.8985    0.6184   -4.2074   C.3       1 RES1   0.0000
   153 C70      -6.2763    1.6660   -5.2691   C.3       1 RES1   0.0000
   154 C71      -6.0707    3.1311   -4.8637   C.3       1 RES1   0.0000
   155 C72      -7.1124    3.6265   -3.8636   C.3       1 RES1   0.0000
   156 H73       1.0359    2.6431    6.7239   H         1 RES1   0.0000
   157 H74       0.5139    1.1791    5.8926   H         1 RES1   0.0000
   158 H75       2.2235    1.6611    5.8680   H         1 RES1   0.0000
   159 H76       0.6342    0.7206    8.2994   H         1 RES1   0.0000
   160 H77       2.2658    1.3744    8.3795   H         1 RES1   0.0000
   161 H78       2.4117   -1.0295    8.4291   H         1 RES1   0.0000
   162 H79       3.0838   -0.4552    6.9070   H         1 RES1   0.0000
   163 H80       0.9777   -1.0755    5.7404   H         1 RES1   0.0000
   164 H81       0.2629   -1.5376    7.2813   H         1 RES1   0.0000
   165 H82       1.7630   -3.4097    7.5205   H         1 RES1   0.0000
   166 H83       2.8318   -2.8110    6.2598   H         1 RES1   0.0000
   167 H84       1.5915   -4.6405    5.3177   H         1 RES1   0.0000
   168 H85       1.0163   -3.1506    4.5793   H         1 RES1   0.0000
   169 H86      -0.8560   -3.2223    6.4195   H         1 RES1   0.0000
   170 H87      -0.3591   -4.8920    6.6398   H         1 RES1   0.0000
   171 H88      -2.1029   -5.0669    5.0648   H         1 RES1   0.0000
   172 H89      -0.6652   -5.1084    4.0555   H         1 RES1   0.0000
   173 H90      -0.9830   -2.5205    3.8238   H         1 RES1   0.0000
   174 H91      -2.5774   -2.7827    4.5221   H         1 RES1   0.0000
   175 H92      -3.0444   -4.4349    2.6444   H         1 RES1   0.0000
   176 H93      -1.4953   -3.9697    1.9259   H         1 RES1   0.0000
   177 H94      -4.6949   -1.4067    2.4020   H         1 RES1   0.0000
   178 H95      -4.6967   -3.1171    2.8145   H         1 RES1   0.0000
   179 H96      -5.1874   -1.8725    0.0725   H         1 RES1   0.0000
   180 H97      -6.1740   -2.9788    0.9972   H         1 RES1   0.0000
   181 H98      -4.5612   -4.8040    0.5947   H         1 RES1   0.0000
   182 H99      -3.4699   -3.6895   -0.2351   H         1 RES1   0.0000
   183 H100     -5.3520   -3.2490   -1.9097   H         1 RES1   0.0000
   184 H101     -6.2522   -4.5406   -1.1231   H         1 RES1   0.0000
   185 H102     -5.1936   -5.5830   -2.9653   H         1 RES1   0.0000
   186 H103     -4.2205   -6.0548   -1.5796   H         1 RES1   0.0000
   187 H104     -2.5631   -4.2521   -2.1637   H         1 RES1   0.0000
   188 H105     -3.5875   -3.7929   -3.5267   H         1 RES1   0.0000
   189 H106     -1.8765   -5.1477   -4.4474   H         1 RES1   0.0000
   190 H107     -3.3087   -6.1709   -4.4042   H         1 RES1   0.0000
   191 H108     -2.4568   -7.2482   -2.3174   H         1 RES1   0.0000
   192 H109     -1.0353   -6.2017   -2.3702   H         1 RES1   0.0000
   193 H110     -0.4483   -7.1732   -4.6045   H         1 RES1   0.0000
   194 H111     -1.8428   -8.2437   -4.4840   H         1 RES1   0.0000
   195 H112      0.5522   -8.2062   -2.5881   H         1 RES1   0.0000
   196 H113      0.1915   -9.4429   -3.7926   H         1 RES1   0.0000
   197 H114     -0.8660   -9.2427   -2.3938   H         1 RES1   0.0000
   198 H115     -2.8123    0.4550    1.6410   H         1 RES1   0.0000
   199 H116     -3.9116   -0.4080    0.5412   H         1 RES1   0.0000
   200 H117     -3.6328    0.2248   -1.6691   H         1 RES1   0.0000
   201 H118     -2.6163   -1.2556   -1.6156   H         1 RES1   0.0000
   202 H119     -1.5137    0.8645   -5.7438   H         1 RES1   0.0000
   203 H120     -0.2062    0.4633   -4.6154   H         1 RES1   0.0000
   204 H121     -0.5409    2.8329   -3.6319   H         1 RES1   0.0000
   205 H122     -1.4253    3.2049   -5.1196   H         1 RES1   0.0000
   206 H123      0.5787    2.3148   -6.4119   H         1 RES1   0.0000
   207 H124      1.4451    2.2162   -4.8866   H         1 RES1   0.0000
   208 H125      0.3449    4.7327   -6.2153   H         1 RES1   0.0000
   209 H126      2.0323    4.2588   -6.0850   H         1 RES1   0.0000
   210 H127      0.1813    5.0552   -3.8022   H         1 RES1   0.0000
   211 H128      1.4957    6.0046   -4.4736   H         1 RES1   0.0000
   212 H129      1.7874    3.4174   -2.8716   H         1 RES1   0.0000
   213 H130      2.3199    5.0397   -2.4274   H         1 RES1   0.0000
   214 H131      3.1141    4.1914   -3.7458   H         1 RES1   0.0000
   215 H132     -3.4044    1.8477   -4.8637   H         1 RES1   0.0000
   216 H133     -3.8095    1.7272   -3.1515   H         1 RES1   0.0000
   217 H134     -4.3409   -0.7787   -3.6638   H         1 RES1   0.0000
   218 H135     -4.3199   -0.3005   -5.3537   H         1 RES1   0.0000
   219 H136     -6.0324    1.0390   -3.2077   H         1 RES1   0.0000
   220 H137     -6.5809   -0.2293   -4.2909   H         1 RES1   0.0000
   221 H138     -7.3306    1.5473   -5.5215   H         1 RES1   0.0000
   222 H139     -5.7105    1.4555   -6.1782   H         1 RES1   0.0000
   223 H140     -6.1433    3.7479   -5.7607   H         1 RES1   0.0000
   224 H141     -5.0711    3.2826   -4.4522   H         1 RES1   0.0000
   225 H142     -8.0975    3.6561   -4.3212   H         1 RES1   0.0000
   226 H143     -6.8663    4.6313   -3.5253   H         1 RES1   0.0000
   227 H144     -7.1679    2.9766   -2.9930   H         1 RES1   0.0000
   228 N5        0.7299   -1.8637   -1.9448   N.3       1 RES1   0.0000
   229 O7        0.8436   -2.3084   -3.0337   O.2       1 RES1   0.0000
   230 O8        1.6541   -1.2444   -1.3875   O.co2     1 RES1   0.0000
   231 O9       -0.3024   -2.0101   -1.2686   O.co2     1 RES1   0.0000
@<TRIPOS>BOND
     1     1    24    1
     2     1    26    1
     3     1    29    1
     4     1   137    1
     5     1   139    1
     6     1   142    1
     7     1   230    1
     8     1   231    1
     9     2     3    1
    10     2    43    1
    11     2    44    1
    12     2    45    1
    13     3     4    1
    14     3    46    1
    15     3    47    1
    16     4     5    1
    17     4    48    1
    18     4    49    1
    19     5     6    1
    20     5    50    1
    21     5    51    1
    22     6     7    1
    23     6    52    1
    24     6    53    1
    25     7     8    1
    26     7    54    1
    27     7    55    1
    28     8     9    1
    29     8    56    1
    30     8    57    1
    31     9    10    1
    32     9    58    1
    33     9    59    1
    34    10    11    1
    35    10    60    1
    36    10    61    1
    37    11    12    1
    38    11    62    1
    39    11    63    1
    40    12    13    1
    41    12    23    1
    42    13    14    1
    43    13    64    1
    44    13    65    1
    45    14    15    1
    46    14    66    1
    47    14    67    1
    48    15    16    1
    49    15    68    1
    50    15    69    1
    51    16    17    1
    52    16    70    1
    53    16    71    1
    54    17    18    1
    55    17    72    1
    56    17    73    1
    57    18    19    1
    58    18    74    1
    59    18    75    1
    60    19    20    1
    61    19    76    1
    62    19    77    1
    63    20    21    1
    64    20    78    1
    65    20    79    1
    66    21    22    1
    67    21    80    1
    68    21    81    1
    69    22    82    1
    70    22    83    1
    71    22    84    1
    72    23    24    2
    73    23    25    1
    74    25    26    1
    75    25    85    1
    76    25    86    1
    77    26    27    1
    78    27    28    1
    79    27    87    1
    80    27    88    1
    81    28    29    2
    82    28    30    1
    83    30    31    1
    84    30    37    1
    85    31    32    1
    86    31    89    1
    87    31    90    1
    88    32    33    1
    89    32    91    1
    90    32    92    1
    91    33    34    1
    92    33    93    1
    93    33    94    1
    94    34    35    1
    95    34    95    1
    96    34    96    1
    97    35    36    1
    98    35    97    1
    99    35    98    1
   100    36    99    1
   101    36   100    1
   102    36   101    1
   103    37    38    1
   104    37   102    1
   105    37   103    1
   106    38    39    1
   107    38   104    1
   108    38   105    1
   109    39    40    1
   110    39   106    1
   111    39   107    1
   112    40    41    1
   113    40   108    1
   114    40   109    1
   115    41    42    1
   116    41   110    1
   117    41   111    1
   118    42   112    1
   119    42   113    1
   120    42   114    1
   121   115   116    1
   122   115   156    1
   123   115   157    1
   124   115   158    1
   125   116   117    1
   126   116   159    1
   127   116   160    1
   128   117   118    1
   129   117   161    1
   130   117   162    1
   131   118   119    1
   132   118   163    1
   133   118   164    1
   134   119   120    1
   135   119   165    1
   136   119   166    1
   137   120   121    1
   138   120   167    1
   139   120   168    1
   140   121   122    1
   141   121   169    1
   142   121   170    1
   143   122   123    1
   144   122   171    1
   145   122   172    1
   146   123   124    1
   147   123   173    1
   148   123   174    1
   149   124   125    1
   150   124   175    1
   151   124   176    1
   152   125   126    1
   153   125   136    1
   154   126   127    1
   155   126   177    1
   156   126   178    1
   157   127   128    1
   158   127   179    1
   159   127   180    1
   160   128   129    1
   161   128   181    1
   162   128   182    1
   163   129   130    1
   164   129   183    1
   165   129   184    1
   166   130   131    1
   167   130   185    1
   168   130   186    1
   169   131   132    1
   170   131   187    1
   171   131   188    1
   172   132   133    1
   173   132   189    1
   174   132   190    1
   175   133   134    1
   176   133   191    1
   177   133   192    1
   178   134   135    1
   179   134   193    1
   180   134   194    1
   181   135   195    1
   182   135   196    1
   183   135   197    1
   184   136   137    2
   185   136   138    1
   186   138   139    1
   187   138   198    1
   188   138   199    1
   189   139   140    1
   190   140   141    1
   191   140   200    1
   192   140   201    1
   193   141   142    2
   194   141   143    1
   195   143   144    1
   196   143   150    1
   197   144   145    1
   198   144   202    1
   199   144   203    1
   200   145   146    1
   201   145   204    1
   202   145   205    1
   203   146   147    1
   204   146   206    1
   205   146   207    1
   206   147   148    1
   207   147   208    1
   208   147   209    1
   209   148   149    1
   210   148   210    1
   211   148   211    1
   212   149   212    1
   213   149   213    1
   214   149   214    1
   215   150   151    1
   216   150   215    1
   217   150   216    1
   218   151   152    1
   219   151   217    1
   220   151   218    1
   221   152   153    1
   222   152   219    1
   223   152   220    1
   224   153   154    1
   225   153   221    1
   226   153   222    1
   227   154   155    1
   228   154   223    1
   229   154   224    1
   230   155   225    1
   231   155   226    1
   232   155   227    1
   233   228   229    2
   234   228   230    1
   235   228   231    1
@<TRIPOS>SUBSTRUCTURE
     1 RES1      231 GROUP             0 ****  ****    0  
