@<TRIPOS>MOLECULE
ICIGOT_geomtry_0_nunpairedes_0_charge_2 Charge: 2 Unpaired_Electrons: 3 XTB_Unpaired_Electrons: 0 XTB_Charge: 2
   279   283     1     0     0
SMALL
NoCharges
****
Generated from Architector

@<TRIPOS>ATOM
     1 Er1       0.0714    0.0590    0.6239   Er        1 RES1   0.0000
     2 C1       -3.1006   -3.4934    4.0487   C.3       1 RES1   0.0000
     3 C2       -3.5582   -2.0393    4.0527   C.3       1 RES1   0.0000
     4 C3       -2.8029   -1.1437    5.0399   C.3       1 RES1   0.0000
     5 C4       -1.4106   -0.6846    4.5940   C.3       1 RES1   0.0000
     6 C5       -0.2792   -1.7141    4.6558   C.3       1 RES1   0.0000
     7 C6        1.0517   -1.0007    4.4231   C.3       1 RES1   0.0000
     8 C7        2.2969   -1.8459    4.7108   C.3       1 RES1   0.0000
     9 C8        2.8136   -2.7511    3.5923   C.3       1 RES1   0.0000
    10 C9        3.0870   -2.0358    2.2725   C.3       1 RES1   0.0000
    11 C10       3.9919   -0.8016    2.3547   C.3       1 RES1   0.0000
    12 N1        4.1932   -0.2765    0.9979   N.am      1 RES1   0.0000
    13 C11       5.4890    0.2910    0.6621   C.3       1 RES1   0.0000
    14 C12       5.5843    1.6967    1.2648   C.3       1 RES1   0.0000
    15 C13       6.9896    2.2957    1.1744   C.3       1 RES1   0.0000
    16 C14       7.2174    3.4189    2.2083   C.3       1 RES1   0.0000
    17 C15       8.4992    3.1930    3.0131   C.3       1 RES1   0.0000
    18 C16       8.5416    4.0184    4.2977   C.3       1 RES1   0.0000
    19 C17       9.8527    3.8707    5.0737   C.3       1 RES1   0.0000
    20 C18      10.1001    2.4651    5.6373   C.3       1 RES1   0.0000
    21 C19       9.4046    2.1747    6.9710   C.3       1 RES1   0.0000
    22 C20      10.0996    2.8502    8.1480   C.3       1 RES1   0.0000
    23 C21       3.0808    0.1281    0.3877   C.2       1 RES1   0.0000
    24 O1        2.0436    0.3134    1.0469   O.2       1 RES1   0.0000
    25 C22       3.0122    0.2562   -1.1384   C.3       1 RES1   0.0000
    26 O2        1.6729    0.0039   -1.5935   O.3       1 RES1   0.0000
    27 C23       1.4894   -1.2420   -2.2763   C.3       1 RES1   0.0000
    28 C24       1.2880   -2.3671   -1.2527   C.2       1 RES1   0.0000
    29 O3        1.0891   -1.9761   -0.0767   O.2       1 RES1   0.0000
    30 N2        1.3610   -3.6480   -1.5660   N.am      1 RES1   0.0000
    31 C25       1.4436   -4.1892   -2.9166   C.3       1 RES1   0.0000
    32 C26       0.2648   -5.0951   -3.3120   C.3       1 RES1   0.0000
    33 C27      -0.9298   -4.3524   -3.9126   C.3       1 RES1   0.0000
    34 C28      -1.7084   -3.5528   -2.8756   C.3       1 RES1   0.0000
    35 C29      -2.9282   -2.8510   -3.4611   C.3       1 RES1   0.0000
    36 C30      -3.6274   -2.0411   -2.3756   C.3       1 RES1   0.0000
    37 C31      -4.8894   -1.3334   -2.8523   C.3       1 RES1   0.0000
    38 C32      -5.5065   -0.4665   -1.7550   C.3       1 RES1   0.0000
    39 C33      -4.6562    0.7596   -1.4265   C.3       1 RES1   0.0000
    40 C34      -5.3642    1.7056   -0.4645   C.3       1 RES1   0.0000
    41 C35       1.2383   -4.6052   -0.4573   C.3       1 RES1   0.0000
    42 C36       2.1590   -5.8198   -0.5138   C.3       1 RES1   0.0000
    43 C37       3.6492   -5.5195   -0.3316   C.3       1 RES1   0.0000
    44 C38       4.4180   -6.8385   -0.1627   C.3       1 RES1   0.0000
    45 C39       5.8335   -6.7058    0.4118   C.3       1 RES1   0.0000
    46 C40       6.9124   -6.3335   -0.6108   C.3       1 RES1   0.0000
    47 C41       8.1749   -5.8064    0.0839   C.3       1 RES1   0.0000
    48 C42       9.1490   -5.1118   -0.8730   C.3       1 RES1   0.0000
    49 C43      10.1530   -4.2198   -0.1363   C.3       1 RES1   0.0000
    50 C44      10.8120   -3.2078   -1.0673   C.3       1 RES1   0.0000
    51 H1       -3.8126   -4.1109    3.5090   H         1 RES1   0.0000
    52 H2       -3.0251   -3.8726    5.0652   H         1 RES1   0.0000
    53 H3       -2.1371   -3.5992    3.5620   H         1 RES1   0.0000
    54 H4       -4.6170   -2.0102    4.3182   H         1 RES1   0.0000
    55 H5       -3.4592   -1.6244    3.0460   H         1 RES1   0.0000
    56 H6       -2.7317   -1.6485    6.0062   H         1 RES1   0.0000
    57 H7       -3.4017   -0.2381    5.1928   H         1 RES1   0.0000
    58 H8       -1.1256    0.1496    5.2441   H         1 RES1   0.0000
    59 H9       -1.4751   -0.3005    3.5687   H         1 RES1   0.0000
    60 H10      -0.4188   -2.4824    3.8993   H         1 RES1   0.0000
    61 H11      -0.2702   -2.1936    5.6374   H         1 RES1   0.0000
    62 H12       1.0769   -0.1468    5.1060   H         1 RES1   0.0000
    63 H13       1.0461   -0.6047    3.3923   H         1 RES1   0.0000
    64 H14       2.0925   -2.4728    5.5801   H         1 RES1   0.0000
    65 H15       3.1065   -1.1758    4.9985   H         1 RES1   0.0000
    66 H16       2.0880   -3.5376    3.3863   H         1 RES1   0.0000
    67 H17       3.7297   -3.2329    3.9377   H         1 RES1   0.0000
    68 H18       2.1210   -1.7418    1.8589   H         1 RES1   0.0000
    69 H19       3.5508   -2.7382    1.5748   H         1 RES1   0.0000
    70 H20       4.9691   -1.0631    2.7514   H         1 RES1   0.0000
    71 H21       3.5365   -0.0335    2.9861   H         1 RES1   0.0000
    72 H22       5.6206    0.3331   -0.4192   H         1 RES1   0.0000
    73 H23       6.2703   -0.3511    1.0771   H         1 RES1   0.0000
    74 H24       5.3056    1.6182    2.3172   H         1 RES1   0.0000
    75 H25       4.8557    2.3490    0.7721   H         1 RES1   0.0000
    76 H26       7.1690    2.6646    0.1631   H         1 RES1   0.0000
    77 H27       7.7176    1.4977    1.3604   H         1 RES1   0.0000
    78 H28       6.3788    3.4525    2.9108   H         1 RES1   0.0000
    79 H29       7.2569    4.3940    1.7189   H         1 RES1   0.0000
    80 H30       9.3641    3.4209    2.3903   H         1 RES1   0.0000
    81 H31       8.5470    2.1340    3.2762   H         1 RES1   0.0000
    82 H32       7.7108    3.7203    4.9362   H         1 RES1   0.0000
    83 H33       8.4043    5.0731    4.0475   H         1 RES1   0.0000
    84 H34       9.8539    4.5917    5.8903   H         1 RES1   0.0000
    85 H35      10.6787    4.1353    4.4135   H         1 RES1   0.0000
    86 H36      11.1720    2.3292    5.7891   H         1 RES1   0.0000
    87 H37       9.7827    1.7218    4.9061   H         1 RES1   0.0000
    88 H38       9.4188    1.0943    7.1436   H         1 RES1   0.0000
    89 H39       8.3586    2.4860    6.9189   H         1 RES1   0.0000
    90 H40      11.1221    2.4834    8.2370   H         1 RES1   0.0000
    91 H41       9.5736    2.6373    9.0783   H         1 RES1   0.0000
    92 H42      10.1384    3.9293    8.0156   H         1 RES1   0.0000
    93 H43       3.7027   -0.4467   -1.6067   H         1 RES1   0.0000
    94 H44       3.2706    1.2779   -1.4372   H         1 RES1   0.0000
    95 H45       2.3319   -1.4360   -2.9451   H         1 RES1   0.0000
    96 H46       0.5742   -1.1137   -2.8658   H         1 RES1   0.0000
    97 H47       2.3671   -4.7718   -2.9795   H         1 RES1   0.0000
    98 H48       1.5054   -3.3738   -3.6373   H         1 RES1   0.0000
    99 H49      -0.0731   -5.6622   -2.4480   H         1 RES1   0.0000
   100 H50       0.6334   -5.8062   -4.0521   H         1 RES1   0.0000
   101 H51      -1.6059   -5.0856   -4.3572   H         1 RES1   0.0000
   102 H52      -0.5908   -3.6990   -4.7216   H         1 RES1   0.0000
   103 H53      -1.0592   -2.8037   -2.4192   H         1 RES1   0.0000
   104 H54      -2.0396   -4.2213   -2.0807   H         1 RES1   0.0000
   105 H55      -3.6141   -3.5899   -3.8741   H         1 RES1   0.0000
   106 H56      -2.6233   -2.1914   -4.2774   H         1 RES1   0.0000
   107 H57      -2.9207   -1.3019   -1.9980   H         1 RES1   0.0000
   108 H58      -3.8788   -2.7098   -1.5494   H         1 RES1   0.0000
   109 H59      -5.6136   -2.0831   -3.1685   H         1 RES1   0.0000
   110 H60      -4.6577   -0.7119   -3.7210   H         1 RES1   0.0000
   111 H61      -5.6454   -1.0667   -0.8543   H         1 RES1   0.0000
   112 H62      -6.4916   -0.1318   -2.0807   H         1 RES1   0.0000
   113 H63      -4.4335    1.2934   -2.3549   H         1 RES1   0.0000
   114 H64      -3.7083    0.4440   -0.9820   H         1 RES1   0.0000
   115 H65      -6.3134    2.0312   -0.8810   H         1 RES1   0.0000
   116 H66      -4.7600    2.5924   -0.2747   H         1 RES1   0.0000
   117 H67      -5.5614    1.2104    0.4833   H         1 RES1   0.0000
   118 H68       0.1984   -4.9407   -0.3973   H         1 RES1   0.0000
   119 H69       1.4654   -4.0487    0.4526   H         1 RES1   0.0000
   120 H70       2.0163   -6.4021   -1.4214   H         1 RES1   0.0000
   121 H71       1.8460   -6.4488    0.3213   H         1 RES1   0.0000
   122 H72       3.7861   -4.9073    0.5641   H         1 RES1   0.0000
   123 H73       4.0368   -4.9549   -1.1828   H         1 RES1   0.0000
   124 H74       4.4641   -7.3571   -1.1190   H         1 RES1   0.0000
   125 H75       3.8378   -7.4646    0.5180   H         1 RES1   0.0000
   126 H76       6.1088   -7.6605    0.8634   H         1 RES1   0.0000
   127 H77       5.8185   -5.9640    1.2140   H         1 RES1   0.0000
   128 H78       6.5259   -5.5745   -1.2981   H         1 RES1   0.0000
   129 H79       7.1623   -7.2071   -1.2137   H         1 RES1   0.0000
   130 H80       8.6773   -6.6307    0.5916   H         1 RES1   0.0000
   131 H81       7.8784   -5.0918    0.8591   H         1 RES1   0.0000
   132 H82       8.5838   -4.4914   -1.5737   H         1 RES1   0.0000
   133 H83       9.6827   -5.8581   -1.4618   H         1 RES1   0.0000
   134 H84      10.9202   -4.8376    0.3332   H         1 RES1   0.0000
   135 H85       9.6364   -3.6776    0.6612   H         1 RES1   0.0000
   136 H86      11.3635   -3.7091   -1.8569   H         1 RES1   0.0000
   137 H87      11.5042   -2.5793   -0.5133   H         1 RES1   0.0000
   138 H88      10.0622   -2.5684   -1.5303   H         1 RES1   0.0000
   139 C45       8.6310   -1.8360    3.9303   C.3       1 RES1   0.0000
   140 C46       7.2296   -1.5386    4.4590   C.3       1 RES1   0.0000
   141 C47       7.1324   -0.2571    5.2900   C.3       1 RES1   0.0000
   142 C48       5.6841    0.0152    5.7470   C.3       1 RES1   0.0000
   143 C49       5.1840    1.4141    5.3572   C.3       1 RES1   0.0000
   144 C50       3.7048    1.6531    5.6842   C.3       1 RES1   0.0000
   145 C51       3.2237    3.0938    5.4560   C.3       1 RES1   0.0000
   146 C52       2.9703    3.5140    3.9999   C.3       1 RES1   0.0000
   147 C53       1.7833    2.8457    3.2892   C.3       1 RES1   0.0000
   148 C54       0.4210    3.3012    3.8475   C.3       1 RES1   0.0000
   149 N3       -0.5916    3.5484    2.8101   N.am      1 RES1   0.0000
   150 C55      -1.3491    4.7957    2.8227   C.3       1 RES1   0.0000
   151 C56      -2.8386    4.6132    3.1996   C.3       1 RES1   0.0000
   152 C57      -3.2710    5.4844    4.3847   C.3       1 RES1   0.0000
   153 C58      -2.4647    5.2119    5.6639   C.3       1 RES1   0.0000
   154 C59      -1.6590    6.4344    6.1097   C.3       1 RES1   0.0000
   155 C60      -0.5417    6.0695    7.0849   C.3       1 RES1   0.0000
   156 C61       0.2224    7.2856    7.6155   C.3       1 RES1   0.0000
   157 C62       0.8356    8.1830    6.5381   C.3       1 RES1   0.0000
   158 C63       1.8167    7.4833    5.5965   C.3       1 RES1   0.0000
   159 C64       3.0712    6.9794    6.2997   C.3       1 RES1   0.0000
   160 C65      -0.8791    2.5543    1.9843   C.2       1 RES1   0.0000
   161 O4       -0.4178    1.4078    2.1511   O.2       1 RES1   0.0000
   162 C66      -1.7970    2.7852    0.7747   C.3       1 RES1   0.0000
   163 O5       -1.6325    1.6985   -0.1514   O.3       1 RES1   0.0000
   164 C67      -1.2024    2.0463   -1.4648   C.3       1 RES1   0.0000
   165 C68       0.2899    2.4180   -1.4145   C.2       1 RES1   0.0000
   166 O6        0.8427    2.2967   -0.3059   O.2       1 RES1   0.0000
   167 N4        0.9193    2.8650   -2.4980   N.am      1 RES1   0.0000
   168 C69       0.2985    2.8870   -3.8244   C.3       1 RES1   0.0000
   169 C70       1.2269    2.7847   -5.0508   C.3       1 RES1   0.0000
   170 C71       1.7526    1.3853   -5.4154   C.3       1 RES1   0.0000
   171 C72       3.0949    1.0074   -4.7847   C.3       1 RES1   0.0000
   172 C73       3.5815   -0.3836   -5.2127   C.3       1 RES1   0.0000
   173 C74       4.8678   -0.8019   -4.4784   C.3       1 RES1   0.0000
   174 C75       4.9841   -2.3147   -4.2431   C.3       1 RES1   0.0000
   175 C76       5.9943   -2.7146   -3.1557   C.3       1 RES1   0.0000
   176 C77       5.5381   -2.2969   -1.7565   C.3       1 RES1   0.0000
   177 C78       6.4765   -2.6829   -0.6211   C.3       1 RES1   0.0000
   178 C79       2.1977    3.5554   -2.3333   C.3       1 RES1   0.0000
   179 C80       2.0445    5.0719   -2.4342   C.3       1 RES1   0.0000
   180 C81       1.1177    5.6133   -1.3523   C.3       1 RES1   0.0000
   181 C82       1.1076    7.1389   -1.3403   C.3       1 RES1   0.0000
   182 C83       0.2304    7.7251   -0.2351   C.3       1 RES1   0.0000
   183 C84      -1.2470    7.3722   -0.3952   C.3       1 RES1   0.0000
   184 C85      -2.1115    7.9781    0.7057   C.3       1 RES1   0.0000
   185 C86      -3.5796    7.5853    0.5539   C.3       1 RES1   0.0000
   186 C87      -4.4458    8.1965    1.6549   C.3       1 RES1   0.0000
   187 C88      -5.8854    7.7016    1.5981   C.3       1 RES1   0.0000
   188 H89       8.6209   -2.7369    3.3141   H         1 RES1   0.0000
   189 H90       9.3291   -2.0038    4.7488   H         1 RES1   0.0000
   190 H91       8.9931   -1.0076    3.3217   H         1 RES1   0.0000
   191 H92       6.8792   -2.3850    5.0566   H         1 RES1   0.0000
   192 H93       6.5649   -1.4426    3.5954   H         1 RES1   0.0000
   193 H94       7.4893    0.5834    4.6843   H         1 RES1   0.0000
   194 H95       7.7908   -0.3274    6.1561   H         1 RES1   0.0000
   195 H96       5.5946   -0.1117    6.8312   H         1 RES1   0.0000
   196 H97       5.0358   -0.7394    5.2930   H         1 RES1   0.0000
   197 H98       5.3428    1.5443    4.2846   H         1 RES1   0.0000
   198 H99       5.7889    2.1563    5.8807   H         1 RES1   0.0000
   199 H100      3.5443    1.4029    6.7343   H         1 RES1   0.0000
   200 H101      3.0901    0.9767    5.0898   H         1 RES1   0.0000
   201 H102      3.9660    3.7780    5.8702   H         1 RES1   0.0000
   202 H103      2.3066    3.2400    6.0277   H         1 RES1   0.0000
   203 H104      3.8705    3.3383    3.4098   H         1 RES1   0.0000
   204 H105      2.7990    4.5918    3.9958   H         1 RES1   0.0000
   205 H106      1.8660    1.7622    3.3554   H         1 RES1   0.0000
   206 H107      1.8248    3.1073    2.2276   H         1 RES1   0.0000
   207 H108      0.5521    4.2378    4.3896   H         1 RES1   0.0000
   208 H109      0.0298    2.5528    4.5430   H         1 RES1   0.0000
   209 H110     -1.2544    5.2879    1.8511   H         1 RES1   0.0000
   210 H111     -0.8847    5.4503    3.5603   H         1 RES1   0.0000
   211 H112     -3.0205    3.5680    3.4580   H         1 RES1   0.0000
   212 H113     -3.4698    4.8562    2.3412   H         1 RES1   0.0000
   213 H114     -4.3336    5.3115    4.5578   H         1 RES1   0.0000
   214 H115     -3.1687    6.5348    4.1089   H         1 RES1   0.0000
   215 H116     -1.7820    4.3769    5.4925   H         1 RES1   0.0000
   216 H117     -3.1324    4.9157    6.4697   H         1 RES1   0.0000
   217 H118     -2.3270    7.1621    6.5721   H         1 RES1   0.0000
   218 H119     -1.2176    6.9136    5.2336   H         1 RES1   0.0000
   219 H120      0.1555    5.3872    6.5891   H         1 RES1   0.0000
   220 H121     -0.9674    5.5311    7.9336   H         1 RES1   0.0000
   221 H122      1.0080    6.9337    8.2851   H         1 RES1   0.0000
   222 H123     -0.4584    7.8934    8.2130   H         1 RES1   0.0000
   223 H124      1.3561    9.0041    7.0326   H         1 RES1   0.0000
   224 H125      0.0372    8.6298    5.9426   H         1 RES1   0.0000
   225 H126      2.1128    8.1930    4.8204   H         1 RES1   0.0000
   226 H127      1.3180    6.6484    5.0965   H         1 RES1   0.0000
   227 H128      3.5457    7.7896    6.8460   H         1 RES1   0.0000
   228 H129      3.7862    6.5959    5.5744   H         1 RES1   0.0000
   229 H130      2.8361    6.1838    7.0011   H         1 RES1   0.0000
   230 H131     -1.5707    3.7463    0.3054   H         1 RES1   0.0000
   231 H132     -2.8435    2.7655    1.1034   H         1 RES1   0.0000
   232 H133     -1.8136    2.8625   -1.8746   H         1 RES1   0.0000
   233 H134     -1.3702    1.1408   -2.0632   H         1 RES1   0.0000
   234 H135     -0.2666    3.8221   -3.9241   H         1 RES1   0.0000
   235 H136     -0.4049    2.0552   -3.8823   H         1 RES1   0.0000
   236 H137      2.0593    3.4819   -4.9910   H         1 RES1   0.0000
   237 H138      0.6036    3.1238   -5.8817   H         1 RES1   0.0000
   238 H139      1.8711    1.3522   -6.4979   H         1 RES1   0.0000
   239 H140      1.0021    0.6386   -5.1511   H         1 RES1   0.0000
   240 H141      2.9941    1.0344   -3.7001   H         1 RES1   0.0000
   241 H142      3.8488    1.7406   -5.0747   H         1 RES1   0.0000
   242 H143      3.7579   -0.3898   -6.2869   H         1 RES1   0.0000
   243 H144      2.7858   -1.1111   -5.0268   H         1 RES1   0.0000
   244 H145      4.9126   -0.2691   -3.5253   H         1 RES1   0.0000
   245 H146      5.7355   -0.4762   -5.0534   H         1 RES1   0.0000
   246 H147      5.2801   -2.7863   -5.1801   H         1 RES1   0.0000
   247 H148      4.0068   -2.7300   -3.9747   H         1 RES1   0.0000
   248 H149      6.9634   -2.2632   -3.3694   H         1 RES1   0.0000
   249 H150      6.1178   -3.7992   -3.1832   H         1 RES1   0.0000
   250 H151      4.5504   -2.7300   -1.5557   H         1 RES1   0.0000
   251 H152      5.4473   -1.2101   -1.7506   H         1 RES1   0.0000
   252 H153      6.6578   -3.7460   -0.6114   H         1 RES1   0.0000
   253 H154      6.0266   -2.4270    0.3342   H         1 RES1   0.0000
   254 H155      7.4309   -2.1724   -0.7135   H         1 RES1   0.0000
   255 H156      2.9017    3.1897   -3.0787   H         1 RES1   0.0000
   256 H157      2.5694    3.3248   -1.3316   H         1 RES1   0.0000
   257 H158      1.6672    5.3612   -3.4155   H         1 RES1   0.0000
   258 H159      3.0375    5.5065   -2.3192   H         1 RES1   0.0000
   259 H160      1.4381    5.2397   -0.3764   H         1 RES1   0.0000
   260 H161      0.1072    5.2415   -1.5312   H         1 RES1   0.0000
   261 H162      0.7586    7.5037   -2.3074   H         1 RES1   0.0000
   262 H163      2.1300    7.4938   -1.2029   H         1 RES1   0.0000
   263 H164      0.3349    8.8111   -0.2499   H         1 RES1   0.0000
   264 H165      0.5890    7.3744    0.7365   H         1 RES1   0.0000
   265 H166     -1.3751    6.2841   -0.3827   H         1 RES1   0.0000
   266 H167     -1.5986    7.7296   -1.3647   H         1 RES1   0.0000
   267 H168     -2.0273    9.0644    0.6756   H         1 RES1   0.0000
   268 H169     -1.7457    7.6461    1.6808   H         1 RES1   0.0000
   269 H170     -3.6711    6.4932    0.5826   H         1 RES1   0.0000
   270 H171     -3.9468    7.9187   -0.4195   H         1 RES1   0.0000
   271 H172     -4.4296    9.2837    1.5571   H         1 RES1   0.0000
   272 H173     -4.0149    7.9484    2.6288   H         1 RES1   0.0000
   273 H174     -6.3455    7.9735    0.6523   H         1 RES1   0.0000
   274 H175     -6.4656    8.1441    2.4024   H         1 RES1   0.0000
   275 H176     -5.9227    6.6191    1.7022   H         1 RES1   0.0000
   276 N5       -1.3025   -1.8111    0.3391   N.3       1 RES1   0.0000
   277 O7       -1.5996   -2.9395    0.1339   O.2       1 RES1   0.0000
   278 O8       -1.0703   -1.3926    1.4734   O.co2     1 RES1   0.0000
   279 O9       -1.2244   -0.9769   -0.5870   O.co2     1 RES1   0.0000
@<TRIPOS>BOND
     1     1    24    1
     2     1    26    1
     3     1    29    1
     4     1   161    1
     5     1   163    1
     6     1   166    1
     7     1   278    1
     8     1   279    1
     9     2     3    1
    10     2    51    1
    11     2    52    1
    12     2    53    1
    13     3     4    1
    14     3    54    1
    15     3    55    1
    16     4     5    1
    17     4    56    1
    18     4    57    1
    19     5     6    1
    20     5    58    1
    21     5    59    1
    22     6     7    1
    23     6    60    1
    24     6    61    1
    25     7     8    1
    26     7    62    1
    27     7    63    1
    28     8     9    1
    29     8    64    1
    30     8    65    1
    31     9    10    1
    32     9    66    1
    33     9    67    1
    34    10    11    1
    35    10    68    1
    36    10    69    1
    37    11    12    1
    38    11    70    1
    39    11    71    1
    40    12    13    1
    41    12    23    1
    42    13    14    1
    43    13    72    1
    44    13    73    1
    45    14    15    1
    46    14    74    1
    47    14    75    1
    48    15    16    1
    49    15    76    1
    50    15    77    1
    51    16    17    1
    52    16    78    1
    53    16    79    1
    54    17    18    1
    55    17    80    1
    56    17    81    1
    57    18    19    1
    58    18    82    1
    59    18    83    1
    60    19    20    1
    61    19    84    1
    62    19    85    1
    63    20    21    1
    64    20    86    1
    65    20    87    1
    66    21    22    1
    67    21    88    1
    68    21    89    1
    69    22    90    1
    70    22    91    1
    71    22    92    1
    72    23    24    2
    73    23    25    1
    74    25    26    1
    75    25    93    1
    76    25    94    1
    77    26    27    1
    78    27    28    1
    79    27    95    1
    80    27    96    1
    81    28    29    2
    82    28    30    1
    83    30    31    1
    84    30    41    1
    85    31    32    1
    86    31    97    1
    87    31    98    1
    88    32    33    1
    89    32    99    1
    90    32   100    1
    91    33    34    1
    92    33   101    1
    93    33   102    1
    94    34    35    1
    95    34   103    1
    96    34   104    1
    97    35    36    1
    98    35   105    1
    99    35   106    1
   100    36    37    1
   101    36   107    1
   102    36   108    1
   103    37    38    1
   104    37   109    1
   105    37   110    1
   106    38    39    1
   107    38   111    1
   108    38   112    1
   109    39    40    1
   110    39   113    1
   111    39   114    1
   112    40   115    1
   113    40   116    1
   114    40   117    1
   115    41    42    1
   116    41   118    1
   117    41   119    1
   118    42    43    1
   119    42   120    1
   120    42   121    1
   121    43    44    1
   122    43   122    1
   123    43   123    1
   124    44    45    1
   125    44   124    1
   126    44   125    1
   127    45    46    1
   128    45   126    1
   129    45   127    1
   130    46    47    1
   131    46   128    1
   132    46   129    1
   133    47    48    1
   134    47   130    1
   135    47   131    1
   136    48    49    1
   137    48   132    1
   138    48   133    1
   139    49    50    1
   140    49   134    1
   141    49   135    1
   142    50   136    1
   143    50   137    1
   144    50   138    1
   145   139   140    1
   146   139   188    1
   147   139   189    1
   148   139   190    1
   149   140   141    1
   150   140   191    1
   151   140   192    1
   152   141   142    1
   153   141   193    1
   154   141   194    1
   155   142   143    1
   156   142   195    1
   157   142   196    1
   158   143   144    1
   159   143   197    1
   160   143   198    1
   161   144   145    1
   162   144   199    1
   163   144   200    1
   164   145   146    1
   165   145   201    1
   166   145   202    1
   167   146   147    1
   168   146   203    1
   169   146   204    1
   170   147   148    1
   171   147   205    1
   172   147   206    1
   173   148   149    1
   174   148   207    1
   175   148   208    1
   176   149   150    1
   177   149   160    1
   178   150   151    1
   179   150   209    1
   180   150   210    1
   181   151   152    1
   182   151   211    1
   183   151   212    1
   184   152   153    1
   185   152   213    1
   186   152   214    1
   187   153   154    1
   188   153   215    1
   189   153   216    1
   190   154   155    1
   191   154   217    1
   192   154   218    1
   193   155   156    1
   194   155   219    1
   195   155   220    1
   196   156   157    1
   197   156   221    1
   198   156   222    1
   199   157   158    1
   200   157   223    1
   201   157   224    1
   202   158   159    1
   203   158   225    1
   204   158   226    1
   205   159   227    1
   206   159   228    1
   207   159   229    1
   208   160   161    2
   209   160   162    1
   210   162   163    1
   211   162   230    1
   212   162   231    1
   213   163   164    1
   214   164   165    1
   215   164   232    1
   216   164   233    1
   217   165   166    2
   218   165   167    1
   219   167   168    1
   220   167   178    1
   221   168   169    1
   222   168   234    1
   223   168   235    1
   224   169   170    1
   225   169   236    1
   226   169   237    1
   227   170   171    1
   228   170   238    1
   229   170   239    1
   230   171   172    1
   231   171   240    1
   232   171   241    1
   233   172   173    1
   234   172   242    1
   235   172   243    1
   236   173   174    1
   237   173   244    1
   238   173   245    1
   239   174   175    1
   240   174   246    1
   241   174   247    1
   242   175   176    1
   243   175   248    1
   244   175   249    1
   245   176   177    1
   246   176   250    1
   247   176   251    1
   248   177   252    1
   249   177   253    1
   250   177   254    1
   251   178   179    1
   252   178   255    1
   253   178   256    1
   254   179   180    1
   255   179   257    1
   256   179   258    1
   257   180   181    1
   258   180   259    1
   259   180   260    1
   260   181   182    1
   261   181   261    1
   262   181   262    1
   263   182   183    1
   264   182   263    1
   265   182   264    1
   266   183   184    1
   267   183   265    1
   268   183   266    1
   269   184   185    1
   270   184   267    1
   271   184   268    1
   272   185   186    1
   273   185   269    1
   274   185   270    1
   275   186   187    1
   276   186   271    1
   277   186   272    1
   278   187   273    1
   279   187   274    1
   280   187   275    1
   281   276   277    2
   282   276   278    1
   283   276   279    1
@<TRIPOS>SUBSTRUCTURE
     1 RES1      279 GROUP             0 ****  ****    0  
