@<TRIPOS>MOLECULE
ICIGOT_geomtry_0_nunpairedes_0_charge_3 Charge: 3 Unpaired_Electrons: 3 XTB_Unpaired_Electrons: 0 XTB_Charge: 3
   117   130     1     0     0
SMALL
NoCharges
****
Generated from Architector

@<TRIPOS>ATOM
     1 Er1      -0.9144    0.6626    1.1508   Er        1 RES1   0.0000
     2 C1        3.7067   -3.8622   -5.6549   C.3       1 RES1   0.0000
     3 C2        3.4415   -4.8552   -4.5318   C.3       1 RES1   0.0000
     4 C3        3.4611   -4.2084   -3.1461   C.3       1 RES1   0.0000
     5 C4        2.2324   -3.3660   -2.7673   C.3       1 RES1   0.0000
     6 C5        0.9485   -4.1608   -2.5176   C.3       1 RES1   0.0000
     7 C6       -0.1936   -3.3214   -1.9033   C.3       1 RES1   0.0000
     8 N1        0.0813   -3.1335   -0.4841   N.ar      1 RES1   0.0000
     9 C7        0.5009   -4.2565    0.2599   C.ar      1 RES1   0.0000
    10 C8       -0.6083   -5.2373    0.2831   C.ar      1 RES1   0.0000
    11 C9       -1.6790   -4.6853    1.0054   C.ar      1 RES1   0.0000
    12 C10      -2.8474   -5.3950    1.1735   C.ar      1 RES1   0.0000
    13 C11      -2.9867   -6.6330    0.5644   C.ar      1 RES1   0.0000
    14 C12      -1.9430   -7.1649   -0.1772   C.ar      1 RES1   0.0000
    15 C13      -0.7471   -6.4724   -0.3202   C.ar      1 RES1   0.0000
    16 C14       1.5502   -4.1405    1.1296   C.ar      1 RES1   0.0000
    17 C15       2.1519   -5.3485    1.7221   C.ar      1 RES1   0.0000
    18 C16       1.3748   -6.2170    2.4846   C.ar      1 RES1   0.0000
    19 C17       1.9591   -7.3275    3.0629   C.ar      1 RES1   0.0000
    20 C18       3.3003   -7.6022    2.8598   C.ar      1 RES1   0.0000
    21 C19       4.0601   -6.7750    2.0494   C.ar      1 RES1   0.0000
    22 C20       3.4912   -5.6491    1.4805   C.ar      1 RES1   0.0000
    23 C21       1.9710   -2.7977    1.4844   C.ar      1 RES1   0.0000
    24 C22       3.1427   -2.3231    2.0976   C.ar      1 RES1   0.0000
    25 C23       3.3446   -0.9318    2.2089   C.ar      1 RES1   0.0000
    26 C24       4.6129   -0.2520    2.3274   C.ar      1 RES1   0.0000
    27 C25       4.7611    1.0062    1.8397   C.ar      1 RES1   0.0000
    28 C26       3.6551    1.7257    1.2633   C.ar      1 RES1   0.0000
    29 C27       3.7366    2.6509    0.2262   C.ar      1 RES1   0.0000
    30 C28       2.5680    2.9683   -0.4921   C.ar      1 RES1   0.0000
    31 C29       2.5603    3.3802   -1.8594   C.ar      1 RES1   0.0000
    32 C30       3.8120    3.4444   -2.6328   C.ar      1 RES1   0.0000
    33 C31       4.5701    2.2707   -2.6933   C.ar      1 RES1   0.0000
    34 C32       5.6666    2.1973   -3.5287   C.ar      1 RES1   0.0000
    35 C33       6.0363    3.2963   -4.2891   C.ar      1 RES1   0.0000
    36 C34       5.3104    4.4748   -4.1986   C.ar      1 RES1   0.0000
    37 C35       4.1853    4.5459   -3.3943   C.ar      1 RES1   0.0000
    38 C36       1.3777    3.3286   -2.5659   C.ar      1 RES1   0.0000
    39 C37       1.3289    3.4278   -4.0466   C.ar      1 RES1   0.0000
    40 C38       1.6713    2.2816   -4.7729   C.ar      1 RES1   0.0000
    41 C39       1.4946    2.2507   -6.1434   C.ar      1 RES1   0.0000
    42 C40       0.9939    3.3586   -6.8098   C.ar      1 RES1   0.0000
    43 C41       0.6810    4.5045   -6.0978   C.ar      1 RES1   0.0000
    44 C42       0.8354    4.5422   -4.7196   C.ar      1 RES1   0.0000
    45 N2        0.1998    2.9331   -1.9659   N.ar      1 RES1   0.0000
    46 C43      -0.8782    2.3890   -2.7898   C.3       1 RES1   0.0000
    47 C44      -2.0193    3.3562   -3.1199   C.3       1 RES1   0.0000
    48 C45      -2.6407    2.9690   -4.4596   C.3       1 RES1   0.0000
    49 C46      -3.2730    1.5777   -4.4587   C.3       1 RES1   0.0000
    50 C47      -4.6853    1.5617   -3.8714   C.3       1 RES1   0.0000
    51 C48      -5.6603    2.4184   -4.6775   C.3       1 RES1   0.0000
    52 C49       0.0927    2.7168   -0.6410   C.ar      1 RES1   0.0000
    53 O1       -1.0123    2.2991   -0.1355   O.2       1 RES1   0.0000
    54 C50       1.3234    2.6425    0.1053   C.ar      1 RES1   0.0000
    55 N3        1.2319    1.8615    1.2007   N.ar      1 RES1   0.0000
    56 C51       2.3590    1.2807    1.6297   C.ar      1 RES1   0.0000
    57 C52       2.2152   -0.0960    2.0316   C.ar      1 RES1   0.0000
    58 N4        1.0008   -0.5876    1.7308   N.ar      1 RES1   0.0000
    59 C53       0.9523   -1.8345    1.2542   C.ar      1 RES1   0.0000
    60 C54       0.0367   -1.9631    0.1336   C.ar      1 RES1   0.0000
    61 O2       -0.6029   -0.9359   -0.2980   O.2       1 RES1   0.0000
    62 H1        4.6497   -3.3466   -5.4834   H         1 RES1   0.0000
    63 H2        2.9167   -3.1182   -5.7286   H         1 RES1   0.0000
    64 H3        3.7709   -4.3821   -6.6064   H         1 RES1   0.0000
    65 H4        2.4973   -5.3715   -4.7040   H         1 RES1   0.0000
    66 H5        4.2313   -5.6076   -4.5462   H         1 RES1   0.0000
    67 H6        4.3299   -3.5472   -3.1056   H         1 RES1   0.0000
    68 H7        3.6058   -4.9871   -2.3958   H         1 RES1   0.0000
    69 H8        2.0335   -2.6446   -3.5595   H         1 RES1   0.0000
    70 H9        2.4733   -2.8114   -1.8538   H         1 RES1   0.0000
    71 H10       1.1554   -4.9892   -1.8345   H         1 RES1   0.0000
    72 H11       0.6107   -4.5856   -3.4629   H         1 RES1   0.0000
    73 H12      -1.1436   -3.8444   -2.0519   H         1 RES1   0.0000
    74 H13      -0.2540   -2.3266   -2.3574   H         1 RES1   0.0000
    75 H14      -1.5742   -3.6983    1.4476   H         1 RES1   0.0000
    76 H15      -3.6490   -4.9810    1.7683   H         1 RES1   0.0000
    77 H16      -3.9058   -7.1836    0.6888   H         1 RES1   0.0000
    78 H17      -2.0637   -8.1201   -0.6634   H         1 RES1   0.0000
    79 H18       0.0568   -6.8943   -0.9025   H         1 RES1   0.0000
    80 H19       0.3305   -6.0070    2.6593   H         1 RES1   0.0000
    81 H20       1.3625   -7.9912    3.6653   H         1 RES1   0.0000
    82 H21       3.7503   -8.4521    3.3421   H         1 RES1   0.0000
    83 H22       5.0904   -7.0213    1.8501   H         1 RES1   0.0000
    84 H23       4.0726   -5.0135    0.8272   H         1 RES1   0.0000
    85 H24       3.9200   -3.0220    2.3708   H         1 RES1   0.0000
    86 H25       5.4569   -0.7913    2.7316   H         1 RES1   0.0000
    87 H26       5.7309    1.4746    1.7823   H         1 RES1   0.0000
    88 H27       4.6936    2.9903   -0.1353   H         1 RES1   0.0000
    89 H28       4.2573    1.3967   -2.1331   H         1 RES1   0.0000
    90 H29       6.2219    1.2748   -3.5976   H         1 RES1   0.0000
    91 H30       6.8744    3.2197   -4.9647   H         1 RES1   0.0000
    92 H31       5.6181    5.3397   -4.7652   H         1 RES1   0.0000
    93 H32       3.6043    5.4543   -3.3551   H         1 RES1   0.0000
    94 H33       2.0450    1.4063   -4.2566   H         1 RES1   0.0000
    95 H34       1.7248    1.3500   -6.6900   H         1 RES1   0.0000
    96 H35       0.8455    3.3183   -7.8784   H         1 RES1   0.0000
    97 H36       0.2914    5.3653   -6.6189   H         1 RES1   0.0000
    98 H37       0.5685    5.4411   -4.1840   H         1 RES1   0.0000
    99 H38      -1.2622    1.5138   -2.2443   H         1 RES1   0.0000
   100 H39      -0.4173    2.0693   -3.7263   H         1 RES1   0.0000
   101 H40      -1.6142    4.3648   -3.1901   H         1 RES1   0.0000
   102 H41      -2.7635    3.3458   -2.3240   H         1 RES1   0.0000
   103 H42      -1.8662    3.0217   -5.2249   H         1 RES1   0.0000
   104 H43      -3.3987    3.7042   -4.7146   H         1 RES1   0.0000
   105 H44      -2.6459    0.8792   -3.8993   H         1 RES1   0.0000
   106 H45      -3.3204    1.2153   -5.4851   H         1 RES1   0.0000
   107 H46      -4.6635    1.9150   -2.8351   H         1 RES1   0.0000
   108 H47      -5.0414    0.5275   -3.8663   H         1 RES1   0.0000
   109 H48      -5.4751    3.4819   -4.5324   H         1 RES1   0.0000
   110 H49      -6.6842    2.2183   -4.3698   H         1 RES1   0.0000
   111 H50      -5.5688    2.1937   -5.7389   H         1 RES1   0.0000
   112 O3       -1.9976    0.4434    3.3825   O.3       1 RES1   0.0000
   113 H51      -2.9257    0.7019    3.5219   H         1 RES1   0.0000
   114 H52      -1.6517    0.3172    4.2833   H         1 RES1   0.0000
   115 O4       -3.1940   -0.1430    0.8534   O.3       1 RES1   0.0000
   116 H53      -3.5775   -1.0117    1.0599   H         1 RES1   0.0000
   117 H54      -3.8092    0.2396    0.2030   H         1 RES1   0.0000
@<TRIPOS>BOND
     1     1     8    1
     2     1    45    1
     3     1    53    1
     4     1    55    1
     5     1    58    1
     6     1    61    1
     7     1   112    1
     8     1   115    1
     9     2     3    1
    10     2    62    1
    11     2    63    1
    12     2    64    1
    13     3     4    1
    14     3    65    1
    15     3    66    1
    16     4     5    1
    17     4    67    1
    18     4    68    1
    19     5     6    1
    20     5    69    1
    21     5    70    1
    22     6     7    1
    23     6    71    1
    24     6    72    1
    25     7     8    1
    26     7    73    1
    27     7    74    1
    28     8     9    1
    29     8    60    1
    30     9    10    1
    31     9    16    2
    32    10    11    1
    33    10    15    2
    34    11    12    2
    35    11    75    1
    36    12    13    1
    37    12    76    1
    38    13    14    2
    39    13    77    1
    40    14    15    1
    41    14    78    1
    42    15    79    1
    43    16    17    1
    44    16    23    1
    45    17    18    1
    46    17    22    2
    47    18    19    2
    48    18    80    1
    49    19    20    1
    50    19    81    1
    51    20    21    2
    52    20    82    1
    53    21    22    1
    54    21    83    1
    55    22    84    1
    56    23    24    1
    57    23    59    2
    58    24    25    2
    59    24    85    1
    60    25    26    1
    61    25    57    1
    62    26    27    2
    63    26    86    1
    64    27    28    1
    65    27    87    1
    66    28    29    1
    67    28    56    2
    68    29    30    2
    69    29    88    1
    70    30    31    1
    71    30    54    1
    72    31    32    1
    73    31    38    2
    74    32    33    1
    75    32    37    2
    76    33    34    2
    77    33    89    1
    78    34    35    1
    79    34    90    1
    80    35    36    2
    81    35    91    1
    82    36    37    1
    83    36    92    1
    84    37    93    1
    85    38    39    1
    86    38    45    1
    87    39    40    1
    88    39    44    2
    89    40    41    2
    90    40    94    1
    91    41    42    1
    92    41    95    1
    93    42    43    2
    94    42    96    1
    95    43    44    1
    96    43    97    1
    97    44    98    1
    98    45    46    1
    99    45    52    1
   100    46    47    1
   101    46    99    1
   102    46   100    1
   103    47    48    1
   104    47   101    1
   105    47   102    1
   106    48    49    1
   107    48   103    1
   108    48   104    1
   109    49    50    1
   110    49   105    1
   111    49   106    1
   112    50    51    1
   113    50   107    1
   114    50   108    1
   115    51   109    1
   116    51   110    1
   117    51   111    1
   118    52    53    2
   119    52    54    1
   120    54    55    2
   121    55    56    1
   122    56    57    1
   123    57    58    2
   124    58    59    1
   125    59    60    1
   126    60    61    2
   127   112   113    1
   128   112   114    1
   129   115   116    1
   130   115   117    1
@<TRIPOS>SUBSTRUCTURE
     1 RES1      117 GROUP             0 ****  ****    0  
