@<TRIPOS>MOLECULE
ICIGOT_geomtry_0_nunpairedes_0_charge_2 Charge: 2 Unpaired_Electrons: 3 XTB_Unpaired_Electrons: 0 XTB_Charge: 2
   249   253     1     0     0
SMALL
NoCharges
****
Generated from Architector

@<TRIPOS>ATOM
     1 Er1      -0.0678    0.0450    0.1106   Er        1 RES1   0.0000
     2 C1        5.1506    6.5978   -5.5663   C.3       1 RES1   0.0000
     3 C2        3.7177    6.9171   -5.1436   C.3       1 RES1   0.0000
     4 C3        3.5310    6.8069   -3.6262   C.3       1 RES1   0.0000
     5 C4        2.4740    7.7679   -3.0822   C.3       1 RES1   0.0000
     6 C5        2.3620    7.7258   -1.5527   C.3       1 RES1   0.0000
     7 C6        1.3548    6.7021   -1.0234   C.3       1 RES1   0.0000
     8 C7        1.2603    6.8052    0.4993   C.3       1 RES1   0.0000
     9 C8        0.3471    5.7530    1.1397   C.3       1 RES1   0.0000
    10 N1        0.8860    4.4001    1.0532   N.am      1 RES1   0.0000
    11 C9        2.1144    4.1573    1.8233   C.3       1 RES1   0.0000
    12 C10       3.2866    3.4827    1.1033   C.3       1 RES1   0.0000
    13 C11       4.0820    4.3728    0.1406   C.3       1 RES1   0.0000
    14 C12       4.5179    3.5783   -1.0920   C.3       1 RES1   0.0000
    15 C13       3.3019    3.2016   -1.9487   C.3       1 RES1   0.0000
    16 C14       3.2737    1.7518   -2.4275   C.3       1 RES1   0.0000
    17 C15       1.8522    1.2660   -2.7009   C.3       1 RES1   0.0000
    18 C16       1.0951    2.0545   -3.7618   C.3       1 RES1   0.0000
    19 C17       0.2187    3.3443    0.5887   C.2       1 RES1   0.0000
    20 O1        0.7630    2.2335    0.4261   O.2       1 RES1   0.0000
    21 C18      -1.2877    3.4155    0.2721   C.3       1 RES1   0.0000
    22 C19      -1.4620    3.8372   -1.1897   C.3       1 RES1   0.0000
    23 O2       -1.7184    2.0698    0.5132   O.3       1 RES1   0.0000
    24 C20      -2.9918    1.8500    1.1313   C.3       1 RES1   0.0000
    25 C21      -4.1243    2.1463    0.1354   C.3       1 RES1   0.0000
    26 C22      -3.9825    1.2948   -1.1199   C.3       1 RES1   0.0000
    27 C23      -2.8658    0.4059    1.6806   C.2       1 RES1   0.0000
    28 O3       -1.7096   -0.0814    1.7044   O.2       1 RES1   0.0000
    29 N2       -3.8827   -0.2898    2.1673   N.am      1 RES1   0.0000
    30 C24      -5.2691    0.1262    2.2937   C.3       1 RES1   0.0000
    31 C25      -6.1708   -0.2761    1.1057   C.3       1 RES1   0.0000
    32 C26      -6.7480   -1.7097    1.0584   C.3       1 RES1   0.0000
    33 C27      -6.2969   -2.5524   -0.1489   C.3       1 RES1   0.0000
    34 C28      -4.9040   -3.1680   -0.0105   C.3       1 RES1   0.0000
    35 C29      -4.5569   -4.2181   -1.0759   C.3       1 RES1   0.0000
    36 C30      -3.8751   -3.6990   -2.3431   C.3       1 RES1   0.0000
    37 C31      -4.7628   -2.8886   -3.2813   C.3       1 RES1   0.0000
    38 C32      -3.6239   -1.6220    2.7060   C.3       1 RES1   0.0000
    39 C33      -3.3451   -1.5999    4.2136   C.3       1 RES1   0.0000
    40 C34      -3.8895   -2.8440    4.9236   C.3       1 RES1   0.0000
    41 C35      -3.4012   -4.1755    4.3479   C.3       1 RES1   0.0000
    42 C36      -1.8965   -4.3970    4.4835   C.3       1 RES1   0.0000
    43 C37      -1.4496   -4.6905    5.9150   C.3       1 RES1   0.0000
    44 C38       0.0673   -4.6160    6.0820   C.3       1 RES1   0.0000
    45 C39       0.8343   -5.7560    5.4272   C.3       1 RES1   0.0000
    46 H1        5.2175    6.4975   -6.6485   H         1 RES1   0.0000
    47 H2        5.8224    7.3951   -5.2520   H         1 RES1   0.0000
    48 H3        5.4951    5.6681   -5.1182   H         1 RES1   0.0000
    49 H4        3.4854    7.9333   -5.4635   H         1 RES1   0.0000
    50 H5        3.0236    6.2507   -5.6591   H         1 RES1   0.0000
    51 H6        4.4840    7.0400   -3.1472   H         1 RES1   0.0000
    52 H7        3.2634    5.7830   -3.3626   H         1 RES1   0.0000
    53 H8        2.7511    8.7829   -3.3762   H         1 RES1   0.0000
    54 H9        1.4995    7.5545   -3.5305   H         1 RES1   0.0000
    55 H10       3.3467    7.5171   -1.1255   H         1 RES1   0.0000
    56 H11       2.0539    8.7080   -1.1900   H         1 RES1   0.0000
    57 H12       0.3770    6.9032   -1.4645   H         1 RES1   0.0000
    58 H13       1.6519    5.6922   -1.3115   H         1 RES1   0.0000
    59 H14       2.2646    6.7534    0.9238   H         1 RES1   0.0000
    60 H15       0.8585    7.7858    0.7651   H         1 RES1   0.0000
    61 H16       0.2101    6.0012    2.1978   H         1 RES1   0.0000
    62 H17      -0.6244    5.8103    0.6514   H         1 RES1   0.0000
    63 H18       2.4377    5.1173    2.2244   H         1 RES1   0.0000
    64 H19       1.8186    3.5187    2.6640   H         1 RES1   0.0000
    65 H20       3.9674    3.1209    1.8783   H         1 RES1   0.0000
    66 H21       2.9095    2.6072    0.5713   H         1 RES1   0.0000
    67 H22       3.4768    5.2105   -0.1920   H         1 RES1   0.0000
    68 H23       4.9543    4.7780    0.6541   H         1 RES1   0.0000
    69 H24       5.2197    4.1726   -1.6778   H         1 RES1   0.0000
    70 H25       5.0470    2.6794   -0.7705   H         1 RES1   0.0000
    71 H26       2.3920    3.3735   -1.3694   H         1 RES1   0.0000
    72 H27       3.2588    3.8533   -2.8215   H         1 RES1   0.0000
    73 H28       3.8669    1.6511   -3.3355   H         1 RES1   0.0000
    74 H29       3.7130    1.1004   -1.6605   H         1 RES1   0.0000
    75 H30       1.9238    0.2370   -3.0406   H         1 RES1   0.0000
    76 H31       1.2840    1.2696   -1.7460   H         1 RES1   0.0000
    77 H32       1.6318    2.0322   -4.7075   H         1 RES1   0.0000
    78 H33       0.1124    1.6139   -3.9162   H         1 RES1   0.0000
    79 H34       0.9618    3.0947   -3.4802   H         1 RES1   0.0000
    80 H35      -1.8084    4.0920    0.9609   H         1 RES1   0.0000
    81 H36      -1.1533    3.0152   -1.8364   H         1 RES1   0.0000
    82 H37      -2.4910    4.1035   -1.4213   H         1 RES1   0.0000
    83 H38      -0.8306    4.6994   -1.4035   H         1 RES1   0.0000
    84 H39      -3.0848    2.5066    2.0144   H         1 RES1   0.0000
    85 H40      -5.0972    1.9825    0.5937   H         1 RES1   0.0000
    86 H41      -4.0748    3.2045   -0.1300   H         1 RES1   0.0000
    87 H42      -3.8246    0.2492   -0.8566   H         1 RES1   0.0000
    88 H43      -4.8725    1.3710   -1.7409   H         1 RES1   0.0000
    89 H44      -3.1351    1.6217   -1.7130   H         1 RES1   0.0000
    90 H45      -5.6529   -0.3130    3.2179   H         1 RES1   0.0000
    91 H46      -5.2909    1.2089    2.4275   H         1 RES1   0.0000
    92 H47      -7.0132    0.4192    1.1222   H         1 RES1   0.0000
    93 H48      -5.6279   -0.1133    0.1772   H         1 RES1   0.0000
    94 H49      -6.5386   -2.2486    1.9840   H         1 RES1   0.0000
    95 H50      -7.8333   -1.6273    0.9936   H         1 RES1   0.0000
    96 H51      -7.0117   -3.3722   -0.2625   H         1 RES1   0.0000
    97 H52      -6.3572   -1.9476   -1.0555   H         1 RES1   0.0000
    98 H53      -4.1363   -2.3900   -0.0147   H         1 RES1   0.0000
    99 H54      -4.8690   -3.6736    0.9571   H         1 RES1   0.0000
   100 H55      -3.8668   -4.9342   -0.6227   H         1 RES1   0.0000
   101 H56      -5.4540   -4.7731   -1.3529   H         1 RES1   0.0000
   102 H57      -3.0099   -3.0944   -2.0671   H         1 RES1   0.0000
   103 H58      -3.5038   -4.5704   -2.8895   H         1 RES1   0.0000
   104 H59      -4.9902   -1.9098   -2.8675   H         1 RES1   0.0000
   105 H60      -4.2477   -2.7274   -4.2269   H         1 RES1   0.0000
   106 H61      -5.6961   -3.4095   -3.4851   H         1 RES1   0.0000
   107 H62      -4.5201   -2.2085    2.5184   H         1 RES1   0.0000
   108 H63      -2.7890   -2.0704    2.1661   H         1 RES1   0.0000
   109 H64      -2.2734   -1.5001    4.3932   H         1 RES1   0.0000
   110 H65      -3.8325   -0.7224    4.6481   H         1 RES1   0.0000
   111 H66      -3.6128   -2.7801    5.9774   H         1 RES1   0.0000
   112 H67      -4.9814   -2.8259    4.8806   H         1 RES1   0.0000
   113 H68      -3.9254   -4.9827    4.8589   H         1 RES1   0.0000
   114 H69      -3.6676   -4.2315    3.2915   H         1 RES1   0.0000
   115 H70      -1.6099   -5.2295    3.8395   H         1 RES1   0.0000
   116 H71      -1.3810   -3.5062    4.1255   H         1 RES1   0.0000
   117 H72      -1.8932   -3.9536    6.5870   H         1 RES1   0.0000
   118 H73      -1.8059   -5.6742    6.2210   H         1 RES1   0.0000
   119 H74       0.4018   -3.6681    5.6528   H         1 RES1   0.0000
   120 H75       0.3069   -4.5993    7.1468   H         1 RES1   0.0000
   121 H76       0.6718   -5.7805    4.3532   H         1 RES1   0.0000
   122 H77       1.9005   -5.6420    5.6114   H         1 RES1   0.0000
   123 H78       0.5200   -6.7091    5.8400   H         1 RES1   0.0000
   124 C40       0.5843    4.1871    9.3049   C.3       1 RES1   0.0000
   125 C41       1.9815    3.6098    9.1206   C.3       1 RES1   0.0000
   126 C42       2.5164    3.8716    7.7143   C.3       1 RES1   0.0000
   127 C43       3.8978    3.2562    7.4995   C.3       1 RES1   0.0000
   128 C44       4.5153    3.5656    6.1318   C.3       1 RES1   0.0000
   129 C45       3.7448    3.0349    4.9224   C.3       1 RES1   0.0000
   130 C46       3.7637    1.5072    4.8693   C.3       1 RES1   0.0000
   131 C47       2.7557    0.9950    3.8543   C.3       1 RES1   0.0000
   132 N3        2.6864   -0.4581    3.6125   N.am      1 RES1   0.0000
   133 C48       3.4791   -1.4413    4.3412   C.3       1 RES1   0.0000
   134 C49       3.5438   -1.4138    5.8805   C.3       1 RES1   0.0000
   135 C50       2.2467   -1.6216    6.6759   C.3       1 RES1   0.0000
   136 C51       1.3557   -0.3965    6.9359   C.3       1 RES1   0.0000
   137 C52       0.2088   -0.1911    5.9422   C.3       1 RES1   0.0000
   138 C53      -0.3887    1.2122    6.0730   C.3       1 RES1   0.0000
   139 C54      -1.4294    1.5125    4.9957   C.3       1 RES1   0.0000
   140 C55      -2.0630    2.8865    5.1865   C.3       1 RES1   0.0000
   141 C56       1.9747   -0.7615    2.5298   C.2       1 RES1   0.0000
   142 O4        1.3022    0.1158    1.9441   O.2       1 RES1   0.0000
   143 C57       1.8814   -2.1740    1.9193   C.3       1 RES1   0.0000
   144 C58       0.6635   -2.8407    2.5555   C.3       1 RES1   0.0000
   145 O5        1.6162   -1.9289    0.5290   O.3       1 RES1   0.0000
   146 C59       2.2359   -2.7995   -0.4276   C.3       1 RES1   0.0000
   147 C60       1.7379   -4.2573   -0.3133   C.3       1 RES1   0.0000
   148 C61       0.2534   -4.3983   -0.6550   C.3       1 RES1   0.0000
   149 C62       1.7942   -2.2050   -1.7803   C.2       1 RES1   0.0000
   150 O6        0.9043   -1.3323   -1.7170   O.2       1 RES1   0.0000
   151 N4        2.2856   -2.6559   -2.9246   N.am      1 RES1   0.0000
   152 C63       3.5905   -3.2963   -3.0236   C.3       1 RES1   0.0000
   153 C64       4.7471   -2.2949   -2.8526   C.3       1 RES1   0.0000
   154 C65       5.0921   -1.4831   -4.1041   C.3       1 RES1   0.0000
   155 C66       6.2696   -0.5437   -3.8234   C.3       1 RES1   0.0000
   156 C67       6.9389    0.0091   -5.0860   C.3       1 RES1   0.0000
   157 C68       6.0610    0.9086   -5.9589   C.3       1 RES1   0.0000
   158 C69       5.7480    2.2672   -5.3284   C.3       1 RES1   0.0000
   159 C70       4.4764    2.8867   -5.9020   C.3       1 RES1   0.0000
   160 C71       1.6699   -2.2366   -4.1899   C.3       1 RES1   0.0000
   161 C72       0.1688   -2.5302   -4.3233   C.3       1 RES1   0.0000
   162 C73      -0.1989   -3.8134   -5.0828   C.3       1 RES1   0.0000
   163 C74      -1.4721   -3.5849   -5.9020   C.3       1 RES1   0.0000
   164 C75      -2.0309   -4.8444   -6.5654   C.3       1 RES1   0.0000
   165 C76      -2.8368   -5.7162   -5.6040   C.3       1 RES1   0.0000
   166 C77      -3.5958   -6.8502   -6.2953   C.3       1 RES1   0.0000
   167 C78      -2.6877   -7.9080   -6.9078   C.3       1 RES1   0.0000
   168 H79       0.2251    3.9956   10.3118   H         1 RES1   0.0000
   169 H80      -0.1142    3.7383    8.6011   H         1 RES1   0.0000
   170 H81       0.5893    5.2625    9.1451   H         1 RES1   0.0000
   171 H82       1.9568    2.5332    9.3034   H         1 RES1   0.0000
   172 H83       2.6576    4.0521    9.8536   H         1 RES1   0.0000
   173 H84       2.5756    4.9481    7.5459   H         1 RES1   0.0000
   174 H85       1.8062    3.4629    6.9915   H         1 RES1   0.0000
   175 H86       3.8397    2.1774    7.6598   H         1 RES1   0.0000
   176 H87       4.5734    3.6490    8.2625   H         1 RES1   0.0000
   177 H88       5.5253    3.1533    6.1037   H         1 RES1   0.0000
   178 H89       4.6046    4.6468    6.0342   H         1 RES1   0.0000
   179 H90       4.1918    3.4474    4.0185   H         1 RES1   0.0000
   180 H91       2.7137    3.3863    4.9670   H         1 RES1   0.0000
   181 H92       3.4965    1.1653    5.8617   H         1 RES1   0.0000
   182 H93       4.7683    1.1583    4.6292   H         1 RES1   0.0000
   183 H94       2.9731    1.4477    2.8811   H         1 RES1   0.0000
   184 H95       1.7573    1.3337    4.1418   H         1 RES1   0.0000
   185 H96       4.5103   -1.3661    3.9723   H         1 RES1   0.0000
   186 H97       3.0968   -2.4271    4.0739   H         1 RES1   0.0000
   187 H98       4.0710   -0.5405    6.2533   H         1 RES1   0.0000
   188 H99       4.1942   -2.2613    6.1166   H         1 RES1   0.0000
   189 H100      2.5553   -2.0069    7.6478   H         1 RES1   0.0000
   190 H101      1.6611   -2.4062    6.2011   H         1 RES1   0.0000
   191 H102      1.9693    0.5054    6.9673   H         1 RES1   0.0000
   192 H103      0.9088   -0.5001    7.9269   H         1 RES1   0.0000
   193 H104     -0.5708   -0.9329    6.1381   H         1 RES1   0.0000
   194 H105      0.5516   -0.3445    4.9170   H         1 RES1   0.0000
   195 H106      0.4145    1.9527    6.0089   H         1 RES1   0.0000
   196 H107     -0.8456    1.3161    7.0598   H         1 RES1   0.0000
   197 H108     -2.2146    0.7572    5.0363   H         1 RES1   0.0000
   198 H109     -0.9592    1.4460    4.0061   H         1 RES1   0.0000
   199 H110     -2.5600    2.9473    6.1528   H         1 RES1   0.0000
   200 H111     -2.8069    3.0777    4.4136   H         1 RES1   0.0000
   201 H112     -1.3114    3.6721    5.1442   H         1 RES1   0.0000
   202 H113      2.8074   -2.7514    2.0182   H         1 RES1   0.0000
   203 H114     -0.2214   -2.3037    2.1949   H         1 RES1   0.0000
   204 H115      0.7089   -2.7588    3.6382   H         1 RES1   0.0000
   205 H116      0.5745   -3.8925    2.2961   H         1 RES1   0.0000
   206 H117      3.3263   -2.7601   -0.2760   H         1 RES1   0.0000
   207 H118      1.9316   -4.6126    0.7014   H         1 RES1   0.0000
   208 H119      2.3263   -4.8837   -0.9861   H         1 RES1   0.0000
   209 H120     -0.3185   -3.5338   -0.3118   H         1 RES1   0.0000
   210 H121     -0.1589   -5.2949   -0.1887   H         1 RES1   0.0000
   211 H122      0.1124   -4.4861   -1.7306   H         1 RES1   0.0000
   212 H123      3.6622   -3.7669   -4.0041   H         1 RES1   0.0000
   213 H124      3.6749   -4.0811   -2.2724   H         1 RES1   0.0000
   214 H125      5.6380   -2.8514   -2.5581   H         1 RES1   0.0000
   215 H126      4.5031   -1.6055   -2.0399   H         1 RES1   0.0000
   216 H127      4.2266   -0.9033   -4.4318   H         1 RES1   0.0000
   217 H128      5.3708   -2.1653   -4.9097   H         1 RES1   0.0000
   218 H129      7.0246   -1.1016   -3.2640   H         1 RES1   0.0000
   219 H130      5.9402    0.2775   -3.1836   H         1 RES1   0.0000
   220 H131      7.2722   -0.8373   -5.6900   H         1 RES1   0.0000
   221 H132      7.8290    0.5694   -4.7896   H         1 RES1   0.0000
   222 H133      5.1262    0.3913   -6.1800   H         1 RES1   0.0000
   223 H134      6.5726    1.0662   -6.9104   H         1 RES1   0.0000
   224 H135      6.5844    2.9506   -5.4856   H         1 RES1   0.0000
   225 H136      5.6300    2.1477   -4.2499   H         1 RES1   0.0000
   226 H137      4.1636    3.7487   -5.3148   H         1 RES1   0.0000
   227 H138      3.6656    2.1575   -5.9027   H         1 RES1   0.0000
   228 H139      4.6318    3.2179   -6.9258   H         1 RES1   0.0000
   229 H140      2.2047   -2.7455   -4.9904   H         1 RES1   0.0000
   230 H141      1.8238   -1.1643   -4.3196   H         1 RES1   0.0000
   231 H142     -0.2734   -1.6903   -4.8609   H         1 RES1   0.0000
   232 H143     -0.2970   -2.5468   -3.3403   H         1 RES1   0.0000
   233 H144     -0.3521   -4.6406   -4.3897   H         1 RES1   0.0000
   234 H145      0.6058   -4.0991   -5.7636   H         1 RES1   0.0000
   235 H146     -1.2391   -2.8524   -6.6763   H         1 RES1   0.0000
   236 H147     -2.2353   -3.1454   -5.2573   H         1 RES1   0.0000
   237 H148     -1.2111   -5.4189   -6.9972   H         1 RES1   0.0000
   238 H149     -2.6877   -4.5428   -7.3834   H         1 RES1   0.0000
   239 H150     -3.5686   -5.0832   -5.0967   H         1 RES1   0.0000
   240 H151     -2.1749   -6.1414   -4.8449   H         1 RES1   0.0000
   241 H152     -4.2376   -6.4311   -7.0732   H         1 RES1   0.0000
   242 H153     -4.2458   -7.3275   -5.5576   H         1 RES1   0.0000
   243 H154     -2.0994   -7.4926   -7.7213   H         1 RES1   0.0000
   244 H155     -3.2839   -8.7259   -7.3035   H         1 RES1   0.0000
   245 H156     -2.0094   -8.3126   -6.1601   H         1 RES1   0.0000
   246 N5       -1.5129   -0.6300   -1.6798   N.3       1 RES1   0.0000
   247 O7       -1.9864   -1.0367   -2.6851   O.2       1 RES1   0.0000
   248 O8       -1.0656    0.5241   -1.6038   O.co2     1 RES1   0.0000
   249 O9       -1.4881   -1.3199   -0.6440   O.co2     1 RES1   0.0000
@<TRIPOS>BOND
     1     1    20    1
     2     1    23    1
     3     1    28    1
     4     1   142    1
     5     1   145    1
     6     1   150    1
     7     1   248    1
     8     1   249    1
     9     2     3    1
    10     2    46    1
    11     2    47    1
    12     2    48    1
    13     3     4    1
    14     3    49    1
    15     3    50    1
    16     4     5    1
    17     4    51    1
    18     4    52    1
    19     5     6    1
    20     5    53    1
    21     5    54    1
    22     6     7    1
    23     6    55    1
    24     6    56    1
    25     7     8    1
    26     7    57    1
    27     7    58    1
    28     8     9    1
    29     8    59    1
    30     8    60    1
    31     9    10    1
    32     9    61    1
    33     9    62    1
    34    10    11    1
    35    10    19    1
    36    11    12    1
    37    11    63    1
    38    11    64    1
    39    12    13    1
    40    12    65    1
    41    12    66    1
    42    13    14    1
    43    13    67    1
    44    13    68    1
    45    14    15    1
    46    14    69    1
    47    14    70    1
    48    15    16    1
    49    15    71    1
    50    15    72    1
    51    16    17    1
    52    16    73    1
    53    16    74    1
    54    17    18    1
    55    17    75    1
    56    17    76    1
    57    18    77    1
    58    18    78    1
    59    18    79    1
    60    19    20    2
    61    19    21    1
    62    21    22    1
    63    21    23    1
    64    21    80    1
    65    22    81    1
    66    22    82    1
    67    22    83    1
    68    23    24    1
    69    24    25    1
    70    24    27    1
    71    24    84    1
    72    25    26    1
    73    25    85    1
    74    25    86    1
    75    26    87    1
    76    26    88    1
    77    26    89    1
    78    27    28    2
    79    27    29    1
    80    29    30    1
    81    29    38    1
    82    30    31    1
    83    30    90    1
    84    30    91    1
    85    31    32    1
    86    31    92    1
    87    31    93    1
    88    32    33    1
    89    32    94    1
    90    32    95    1
    91    33    34    1
    92    33    96    1
    93    33    97    1
    94    34    35    1
    95    34    98    1
    96    34    99    1
    97    35    36    1
    98    35   100    1
    99    35   101    1
   100    36    37    1
   101    36   102    1
   102    36   103    1
   103    37   104    1
   104    37   105    1
   105    37   106    1
   106    38    39    1
   107    38   107    1
   108    38   108    1
   109    39    40    1
   110    39   109    1
   111    39   110    1
   112    40    41    1
   113    40   111    1
   114    40   112    1
   115    41    42    1
   116    41   113    1
   117    41   114    1
   118    42    43    1
   119    42   115    1
   120    42   116    1
   121    43    44    1
   122    43   117    1
   123    43   118    1
   124    44    45    1
   125    44   119    1
   126    44   120    1
   127    45   121    1
   128    45   122    1
   129    45   123    1
   130   124   125    1
   131   124   168    1
   132   124   169    1
   133   124   170    1
   134   125   126    1
   135   125   171    1
   136   125   172    1
   137   126   127    1
   138   126   173    1
   139   126   174    1
   140   127   128    1
   141   127   175    1
   142   127   176    1
   143   128   129    1
   144   128   177    1
   145   128   178    1
   146   129   130    1
   147   129   179    1
   148   129   180    1
   149   130   131    1
   150   130   181    1
   151   130   182    1
   152   131   132    1
   153   131   183    1
   154   131   184    1
   155   132   133    1
   156   132   141    1
   157   133   134    1
   158   133   185    1
   159   133   186    1
   160   134   135    1
   161   134   187    1
   162   134   188    1
   163   135   136    1
   164   135   189    1
   165   135   190    1
   166   136   137    1
   167   136   191    1
   168   136   192    1
   169   137   138    1
   170   137   193    1
   171   137   194    1
   172   138   139    1
   173   138   195    1
   174   138   196    1
   175   139   140    1
   176   139   197    1
   177   139   198    1
   178   140   199    1
   179   140   200    1
   180   140   201    1
   181   141   142    2
   182   141   143    1
   183   143   144    1
   184   143   145    1
   185   143   202    1
   186   144   203    1
   187   144   204    1
   188   144   205    1
   189   145   146    1
   190   146   147    1
   191   146   149    1
   192   146   206    1
   193   147   148    1
   194   147   207    1
   195   147   208    1
   196   148   209    1
   197   148   210    1
   198   148   211    1
   199   149   150    2
   200   149   151    1
   201   151   152    1
   202   151   160    1
   203   152   153    1
   204   152   212    1
   205   152   213    1
   206   153   154    1
   207   153   214    1
   208   153   215    1
   209   154   155    1
   210   154   216    1
   211   154   217    1
   212   155   156    1
   213   155   218    1
   214   155   219    1
   215   156   157    1
   216   156   220    1
   217   156   221    1
   218   157   158    1
   219   157   222    1
   220   157   223    1
   221   158   159    1
   222   158   224    1
   223   158   225    1
   224   159   226    1
   225   159   227    1
   226   159   228    1
   227   160   161    1
   228   160   229    1
   229   160   230    1
   230   161   162    1
   231   161   231    1
   232   161   232    1
   233   162   163    1
   234   162   233    1
   235   162   234    1
   236   163   164    1
   237   163   235    1
   238   163   236    1
   239   164   165    1
   240   164   237    1
   241   164   238    1
   242   165   166    1
   243   165   239    1
   244   165   240    1
   245   166   167    1
   246   166   241    1
   247   166   242    1
   248   167   243    1
   249   167   244    1
   250   167   245    1
   251   246   247    2
   252   246   248    1
   253   246   249    1
@<TRIPOS>SUBSTRUCTURE
     1 RES1      249 GROUP             0 ****  ****    0  
