@<TRIPOS>MOLECULE
ICIGOT_geomtry_0_nunpairedes_0_charge_3 Charge: 3 Unpaired_Electrons: 3 XTB_Unpaired_Electrons: 0 XTB_Charge: 3
   245   248     1     0     0
SMALL
NoCharges
****
Generated from Architector

@<TRIPOS>ATOM
     1 Er1      -0.0917    0.0774   -0.0190   Er        1 RES1   0.0000
     2 C1       -4.0322    0.4299   -1.9433   C.3       1 RES1   0.0000
     3 C2       -4.8714   -0.7280   -1.4042   C.3       1 RES1   0.0000
     4 C3       -4.8458   -1.9947   -2.2602   C.3       1 RES1   0.0000
     5 C4       -3.5683   -2.8453   -2.2052   C.3       1 RES1   0.0000
     6 N1       -3.1294   -3.3046   -0.8826   N.am      1 RES1   0.0000
     7 C5       -3.4897   -4.6856   -0.5710   C.3       1 RES1   0.0000
     8 C6       -4.9898   -4.9120   -0.3851   C.3       1 RES1   0.0000
     9 C7       -5.6255   -3.9829    0.6456   C.3       1 RES1   0.0000
    10 C8       -7.1390   -4.1244    0.5954   C.3       1 RES1   0.0000
    11 C9       -2.2682   -2.5545   -0.1888   C.2       1 RES1   0.0000
    12 O1       -1.7699   -1.5170   -0.6778   O.2       1 RES1   0.0000
    13 C10      -1.8318   -2.9527    1.2204   C.3       1 RES1   0.0000
    14 C11      -1.9923   -1.7752    2.1901   C.2       1 RES1   0.0000
    15 O2       -1.5854   -0.6500    1.8367   O.2       1 RES1   0.0000
    16 N2       -2.5214   -1.9681    3.4000   N.am      1 RES1   0.0000
    17 C12      -3.0917   -3.1993    3.9484   C.3       1 RES1   0.0000
    18 C13      -2.3424   -3.8308    5.1352   C.3       1 RES1   0.0000
    19 C14      -1.1448   -4.6987    4.7466   C.3       1 RES1   0.0000
    20 C15       0.1005   -3.8810    4.4442   C.3       1 RES1   0.0000
    21 C16      -2.7527   -0.7832    4.2314   C.3       1 RES1   0.0000
    22 C17      -1.5366   -0.2562    4.9951   C.3       1 RES1   0.0000
    23 C18      -1.9934    0.7122    6.0887   C.3       1 RES1   0.0000
    24 C19      -2.7731    1.9125    5.5595   C.3       1 RES1   0.0000
    25 H1       -4.3428    1.3600   -1.4704   H         1 RES1   0.0000
    26 H2       -4.1805    0.5441   -3.0155   H         1 RES1   0.0000
    27 H3       -2.9704    0.2898   -1.7308   H         1 RES1   0.0000
    28 H4       -5.9118   -0.4038   -1.3454   H         1 RES1   0.0000
    29 H5       -4.5411   -0.9604   -0.3901   H         1 RES1   0.0000
    30 H6       -4.9690   -1.7113   -3.3075   H         1 RES1   0.0000
    31 H7       -5.6988   -2.6142   -1.9880   H         1 RES1   0.0000
    32 H8       -2.7451   -2.2809   -2.6341   H         1 RES1   0.0000
    33 H9       -3.7336   -3.7308   -2.8206   H         1 RES1   0.0000
    34 H10      -2.9441   -5.0256    0.3049   H         1 RES1   0.0000
    35 H11      -3.1452   -5.3161   -1.3969   H         1 RES1   0.0000
    36 H12      -5.1300   -5.9500   -0.0790   H         1 RES1   0.0000
    37 H13      -5.5042   -4.7921   -1.3403   H         1 RES1   0.0000
    38 H14      -5.3430   -2.9508    0.4268   H         1 RES1   0.0000
    39 H15      -5.2524   -4.2247    1.6439   H         1 RES1   0.0000
    40 H16      -7.5032   -3.8826   -0.3991   H         1 RES1   0.0000
    41 H17      -7.6142   -3.4592    1.3056   H         1 RES1   0.0000
    42 H18      -7.4342   -5.1422    0.8275   H         1 RES1   0.0000
    43 H19      -0.7502   -3.1391    1.1667   H         1 RES1   0.0000
    44 H20      -2.3483   -3.8315    1.5775   H         1 RES1   0.0000
    45 H21      -3.1877   -3.9526    3.1712   H         1 RES1   0.0000
    46 H22      -4.1070   -2.9683    4.2869   H         1 RES1   0.0000
    47 H23      -3.0651   -4.4641    5.6539   H         1 RES1   0.0000
    48 H24      -2.0305   -3.0615    5.8413   H         1 RES1   0.0000
    49 H25      -1.4127   -5.3289    3.8963   H         1 RES1   0.0000
    50 H26      -0.9221   -5.3696    5.5766   H         1 RES1   0.0000
    51 H27      -0.0461   -3.2362    3.5809   H         1 RES1   0.0000
    52 H28       0.9447   -4.5345    4.2503   H         1 RES1   0.0000
    53 H29       0.3448   -3.2673    5.3062   H         1 RES1   0.0000
    54 H30      -3.5188   -1.0439    4.9631   H         1 RES1   0.0000
    55 H31      -3.1427   -0.0011    3.5744   H         1 RES1   0.0000
    56 H32      -0.8420    0.2314    4.3112   H         1 RES1   0.0000
    57 H33      -1.0102   -1.0906    5.4576   H         1 RES1   0.0000
    58 H34      -1.1209    1.0662    6.6410   H         1 RES1   0.0000
    59 H35      -2.6204    0.1658    6.7929   H         1 RES1   0.0000
    60 H36      -2.1408    2.5272    4.9237   H         1 RES1   0.0000
    61 H37      -3.1257    2.5245    6.3857   H         1 RES1   0.0000
    62 H38      -3.6471    1.6027    4.9930   H         1 RES1   0.0000
    63 C20      -1.0730   -6.1352   -3.8824   C.3       1 RES1   0.0000
    64 C21      -0.0024   -5.0558   -3.9828   C.3       1 RES1   0.0000
    65 C22      -0.4574   -3.9073   -4.8841   C.3       1 RES1   0.0000
    66 C23       0.6283   -2.8457   -5.1055   C.3       1 RES1   0.0000
    67 N3        1.1470   -2.2832   -3.8684   N.am      1 RES1   0.0000
    68 C24       2.4802   -2.7154   -3.4788   C.3       1 RES1   0.0000
    69 C25       3.5734   -1.9565   -4.2332   C.3       1 RES1   0.0000
    70 C26       3.5498   -0.4584   -3.9466   C.3       1 RES1   0.0000
    71 C27       4.7200    0.2309   -4.6337   C.3       1 RES1   0.0000
    72 C28       0.5072   -1.4143   -3.0847   C.2       1 RES1   0.0000
    73 O3        0.9619   -1.0683   -1.9704   O.2       1 RES1   0.0000
    74 C29      -0.8021   -0.8210   -3.5525   C.3       1 RES1   0.0000
    75 C30      -0.7408    0.6911   -3.3842   C.2       1 RES1   0.0000
    76 O4       -0.2727    1.1704   -2.3336   O.2       1 RES1   0.0000
    77 N4       -1.2118    1.4265   -4.3914   N.am      1 RES1   0.0000
    78 C31      -1.0635    2.8757   -4.3078   C.3       1 RES1   0.0000
    79 C32       0.3977    3.3220   -4.2490   C.3       1 RES1   0.0000
    80 C33       1.0673    3.4150   -5.6170   C.3       1 RES1   0.0000
    81 C34       0.5080    4.5678   -6.4457   C.3       1 RES1   0.0000
    82 C35      -2.1897    0.9100   -5.3450   C.3       1 RES1   0.0000
    83 C36      -1.6335    0.4421   -6.6971   C.3       1 RES1   0.0000
    84 C37      -1.4793    1.5642   -7.7262   C.3       1 RES1   0.0000
    85 C38      -2.7903    2.2365   -8.1197   C.3       1 RES1   0.0000
    86 H39      -0.7394   -6.9393   -3.2348   H         1 RES1   0.0000
    87 H40      -1.2829   -6.5541   -4.8616   H         1 RES1   0.0000
    88 H41      -1.9993   -5.7293   -3.4815   H         1 RES1   0.0000
    89 H42       0.9092   -5.4973   -4.3930   H         1 RES1   0.0000
    90 H43       0.2193   -4.6656   -2.9849   H         1 RES1   0.0000
    91 H44      -1.3506   -3.4459   -4.4575   H         1 RES1   0.0000
    92 H45      -0.7293   -4.3120   -5.8610   H         1 RES1   0.0000
    93 H46       0.2541   -2.0558   -5.7598   H         1 RES1   0.0000
    94 H47       1.4689   -3.3119   -5.6196   H         1 RES1   0.0000
    95 H48       2.5709   -3.7873   -3.6696   H         1 RES1   0.0000
    96 H49       2.5628   -2.5158   -2.4108   H         1 RES1   0.0000
    97 H50       3.4797   -2.1184   -5.3082   H         1 RES1   0.0000
    98 H51       4.5409   -2.3616   -3.9322   H         1 RES1   0.0000
    99 H52       3.5956   -0.2950   -2.8656   H         1 RES1   0.0000
   100 H53       2.6081   -0.0302   -4.3003   H         1 RES1   0.0000
   101 H54       5.6625   -0.1782   -4.2795   H         1 RES1   0.0000
   102 H55       4.7143    1.2981   -4.4375   H         1 RES1   0.0000
   103 H56       4.6688    0.0790   -5.7080   H         1 RES1   0.0000
   104 H57      -1.5526   -1.1270   -2.8235   H         1 RES1   0.0000
   105 H58      -1.0882   -1.1302   -4.5485   H         1 RES1   0.0000
   106 H59      -1.5958    3.2077   -3.4158   H         1 RES1   0.0000
   107 H60      -1.5481    3.3140   -5.1777   H         1 RES1   0.0000
   108 H61       0.9520    2.6423   -3.6029   H         1 RES1   0.0000
   109 H62       0.4323    4.3073   -3.7885   H         1 RES1   0.0000
   110 H63       0.9642    2.4689   -6.1526   H         1 RES1   0.0000
   111 H64       2.1327    3.5894   -5.4596   H         1 RES1   0.0000
   112 H65      -0.5550    4.4582   -6.6536   H         1 RES1   0.0000
   113 H66       1.0248    4.6389   -7.3983   H         1 RES1   0.0000
   114 H67       0.6487    5.5057   -5.9140   H         1 RES1   0.0000
   115 H68      -2.9069    1.7094   -5.5334   H         1 RES1   0.0000
   116 H69      -2.7535    0.1016   -4.8754   H         1 RES1   0.0000
   117 H70      -2.3228   -0.3040   -7.0965   H         1 RES1   0.0000
   118 H71      -0.6638   -0.0418   -6.5540   H         1 RES1   0.0000
   119 H72      -1.0281    1.1332   -8.6219   H         1 RES1   0.0000
   120 H73      -0.7931    2.3104   -7.3323   H         1 RES1   0.0000
   121 H74      -3.5127    1.5096   -8.4826   H         1 RES1   0.0000
   122 H75      -2.5968    2.9531   -8.9119   H         1 RES1   0.0000
   123 H76      -3.2417    2.7844   -7.2945   H         1 RES1   0.0000
   124 C39       0.8031    6.1209   -1.4382   C.3       1 RES1   0.0000
   125 C40      -0.5246    5.7969   -0.7579   C.3       1 RES1   0.0000
   126 C41      -1.2268    4.6638   -1.5025   C.3       1 RES1   0.0000
   127 C42      -2.5996    4.2131   -0.9885   C.3       1 RES1   0.0000
   128 N5       -2.5617    3.8545    0.4241   N.am      1 RES1   0.0000
   129 C43      -3.4706    4.5744    1.3134   C.3       1 RES1   0.0000
   130 C44      -3.1471    6.0423    1.6190   C.3       1 RES1   0.0000
   131 C45      -3.6292    7.0603    0.5780   C.3       1 RES1   0.0000
   132 C46      -5.1334    7.0386    0.3254   C.3       1 RES1   0.0000
   133 C47      -1.9130    2.7371    0.7577   C.2       1 RES1   0.0000
   134 O5       -1.6441    1.8421   -0.0677   O.2       1 RES1   0.0000
   135 C48      -1.3407    2.6068    2.1582   C.3       1 RES1   0.0000
   136 C49       0.1782    2.7474    1.9767   C.2       1 RES1   0.0000
   137 O6        0.7265    2.1785    1.0045   O.2       1 RES1   0.0000
   138 N6        0.8939    3.4393    2.8544   N.am      1 RES1   0.0000
   139 C50       0.4246    4.1720    4.0251   C.3       1 RES1   0.0000
   140 C51       0.8113    3.5172    5.3579   C.3       1 RES1   0.0000
   141 C52       0.5598    4.4615    6.5406   C.3       1 RES1   0.0000
   142 C53      -0.9019    4.5605    6.9548   C.3       1 RES1   0.0000
   143 C54       2.3422    3.4518    2.6592   C.3       1 RES1   0.0000
   144 C55       2.8393    4.5064    1.6741   C.3       1 RES1   0.0000
   145 C56       2.7938    5.9409    2.1988   C.3       1 RES1   0.0000
   146 C57       3.5969    6.1478    3.4813   C.3       1 RES1   0.0000
   147 H77       1.3136    6.9246   -0.9153   H         1 RES1   0.0000
   148 H78       0.6339    6.4482   -2.4611   H         1 RES1   0.0000
   149 H79       1.4545    5.2487   -1.4641   H         1 RES1   0.0000
   150 H80      -1.1412    6.6952   -0.7672   H         1 RES1   0.0000
   151 H81      -0.3398    5.5146    0.2814   H         1 RES1   0.0000
   152 H82      -0.5587    3.7989   -1.5095   H         1 RES1   0.0000
   153 H83      -1.3816    5.0028   -2.5270   H         1 RES1   0.0000
   154 H84      -2.9158    3.3434   -1.5750   H         1 RES1   0.0000
   155 H85      -3.3376    4.9997   -1.1074   H         1 RES1   0.0000
   156 H86      -3.5495    4.0152    2.2457   H         1 RES1   0.0000
   157 H87      -4.4594    4.5486    0.8484   H         1 RES1   0.0000
   158 H88      -2.0751    6.1650    1.7769   H         1 RES1   0.0000
   159 H89      -3.6494    6.2752    2.5587   H         1 RES1   0.0000
   160 H90      -3.1124    6.9104   -0.3691   H         1 RES1   0.0000
   161 H91      -3.3500    8.0506    0.9428   H         1 RES1   0.0000
   162 H92      -5.4607    6.1062   -0.1322   H         1 RES1   0.0000
   163 H93      -5.3889    7.8402   -0.3616   H         1 RES1   0.0000
   164 H94      -5.6926    7.1853    1.2459   H         1 RES1   0.0000
   165 H95      -1.5131    1.5824    2.5043   H         1 RES1   0.0000
   166 H96      -1.7598    3.3273    2.8517   H         1 RES1   0.0000
   167 H97      -0.6541    4.3064    3.9871   H         1 RES1   0.0000
   168 H98       0.8845    5.1607    3.9860   H         1 RES1   0.0000
   169 H99       1.8743    3.2699    5.3483   H         1 RES1   0.0000
   170 H100      0.2548    2.5900    5.4964   H         1 RES1   0.0000
   171 H101      0.9433    5.4531    6.2954   H         1 RES1   0.0000
   172 H102      1.1326    4.1046    7.3959   H         1 RES1   0.0000
   173 H103     -1.5244    4.9248    6.1423   H         1 RES1   0.0000
   174 H104     -1.0059    5.2496    7.7878   H         1 RES1   0.0000
   175 H105     -1.2686    3.5889    7.2734   H         1 RES1   0.0000
   176 H106      2.6180    2.4649    2.2859   H         1 RES1   0.0000
   177 H107      2.8157    3.6091    3.6240   H         1 RES1   0.0000
   178 H108      2.2552    4.4249    0.7587   H         1 RES1   0.0000
   179 H109      3.8738    4.2548    1.4380   H         1 RES1   0.0000
   180 H110      1.7573    6.2500    2.3502   H         1 RES1   0.0000
   181 H111      3.2095    6.5881    1.4252   H         1 RES1   0.0000
   182 H112      3.1648    5.6244    4.3331   H         1 RES1   0.0000
   183 H113      3.6263    7.2059    3.7268   H         1 RES1   0.0000
   184 H114      4.6213    5.8047    3.3524   H         1 RES1   0.0000
   185 C58       0.6413   -6.1014    1.5067   C.3       1 RES1   0.0000
   186 C59       1.8521   -5.2001    1.3121   C.3       1 RES1   0.0000
   187 C60       1.9608   -4.7554   -0.1425   C.3       1 RES1   0.0000
   188 C61       3.3194   -4.1509   -0.4512   C.3       1 RES1   0.0000
   189 N7        3.6415   -2.7935    0.0204   N.am      1 RES1   0.0000
   190 C62       5.0745   -2.5508   -0.1751   C.3       1 RES1   0.0000
   191 C63       6.0132   -3.1376    0.8940   C.3       1 RES1   0.0000
   192 C64       6.3764   -4.6258    0.7699   C.3       1 RES1   0.0000
   193 C65       6.8558   -5.0549   -0.6138   C.3       1 RES1   0.0000
   194 C66       2.7507   -1.8588    0.3545   C.2       1 RES1   0.0000
   195 O7        1.5186   -2.0191    0.3696   O.2       1 RES1   0.0000
   196 C67       3.2442   -0.4539    0.7759   C.3       1 RES1   0.0000
   197 C68       2.5321   -0.1382    2.0894   C.2       1 RES1   0.0000
   198 O8        1.2887   -0.0578    2.0794   O.2       1 RES1   0.0000
   199 N8        3.2393    0.0153    3.2070   N.am      1 RES1   0.0000
   200 C69       4.6918    0.1021    3.2971   C.3       1 RES1   0.0000
   201 C70       5.1646    1.5498    3.1182   C.3       1 RES1   0.0000
   202 C71       6.6502    1.7478    3.4221   C.3       1 RES1   0.0000
   203 C72       7.5643    1.0864    2.3986   C.3       1 RES1   0.0000
   204 C73       2.5147    0.3025    4.4425   C.3       1 RES1   0.0000
   205 C74       2.0047   -0.9681    5.1189   C.3       1 RES1   0.0000
   206 C75       3.0903   -1.8823    5.6868   C.3       1 RES1   0.0000
   207 C76       3.8153   -1.2664    6.8790   C.3       1 RES1   0.0000
   208 H115      0.5932   -6.4738    2.5255   H         1 RES1   0.0000
   209 H116      0.7091   -6.9547    0.8354   H         1 RES1   0.0000
   210 H117     -0.2766   -5.5631    1.2801   H         1 RES1   0.0000
   211 H118      2.7498   -5.7599    1.5825   H         1 RES1   0.0000
   212 H119      1.8001   -4.3236    1.9617   H         1 RES1   0.0000
   213 H120      1.1576   -4.0666   -0.3990   H         1 RES1   0.0000
   214 H121      1.8678   -5.6380   -0.7793   H         1 RES1   0.0000
   215 H122      3.4828   -4.1588   -1.5313   H         1 RES1   0.0000
   216 H123      4.0773   -4.7982   -0.0125   H         1 RES1   0.0000
   217 H124      5.2573   -1.4830   -0.2626   H         1 RES1   0.0000
   218 H125      5.3510   -2.9852   -1.1369   H         1 RES1   0.0000
   219 H126      5.5899   -2.9647    1.8844   H         1 RES1   0.0000
   220 H127      6.9435   -2.5715    0.8271   H         1 RES1   0.0000
   221 H128      5.5348   -5.2484    1.0796   H         1 RES1   0.0000
   222 H129      7.1799   -4.8200    1.4836   H         1 RES1   0.0000
   223 H130      6.0795   -4.9676   -1.3726   H         1 RES1   0.0000
   224 H131      7.1551   -6.0988   -0.5785   H         1 RES1   0.0000
   225 H132      7.7142   -4.4643   -0.9240   H         1 RES1   0.0000
   226 H133      2.8371    0.2395    0.0213   H         1 RES1   0.0000
   227 H134      4.3181   -0.3312    0.8400   H         1 RES1   0.0000
   228 H135      5.1629   -0.5660    2.5781   H         1 RES1   0.0000
   229 H136      4.9799   -0.2395    4.2909   H         1 RES1   0.0000
   230 H137      4.5904    2.1781    3.8010   H         1 RES1   0.0000
   231 H138      4.9619    1.8844    2.0985   H         1 RES1   0.0000
   232 H139      6.8725    1.3706    4.4209   H         1 RES1   0.0000
   233 H140      6.8502    2.8199    3.4314   H         1 RES1   0.0000
   234 H141      7.4806    0.0031    2.4389   H         1 RES1   0.0000
   235 H142      8.6004    1.3466    2.5973   H         1 RES1   0.0000
   236 H143      7.3163    1.4246    1.3937   H         1 RES1   0.0000
   237 H144      1.6574    0.9318    4.1919   H         1 RES1   0.0000
   238 H145      3.1745    0.8502    5.1123   H         1 RES1   0.0000
   239 H146      1.4139   -1.5086    4.3811   H         1 RES1   0.0000
   240 H147      1.3488   -0.6618    5.9346   H         1 RES1   0.0000
   241 H148      3.8017   -2.1542    4.9040   H         1 RES1   0.0000
   242 H149      2.6140   -2.8075    6.0165   H         1 RES1   0.0000
   243 H150      4.3571   -0.3621    6.6079   H         1 RES1   0.0000
   244 H151      4.5282   -1.9766    7.2889   H         1 RES1   0.0000
   245 H152      3.1045   -1.0122    7.6624   H         1 RES1   0.0000
@<TRIPOS>BOND
     1     1    12    1
     2     1    15    1
     3     1    73    1
     4     1    76    1
     5     1   134    1
     6     1   137    1
     7     1   195    1
     8     1   198    1
     9     2     3    1
    10     2    25    1
    11     2    26    1
    12     2    27    1
    13     3     4    1
    14     3    28    1
    15     3    29    1
    16     4     5    1
    17     4    30    1
    18     4    31    1
    19     5     6    1
    20     5    32    1
    21     5    33    1
    22     6     7    1
    23     6    11    1
    24     7     8    1
    25     7    34    1
    26     7    35    1
    27     8     9    1
    28     8    36    1
    29     8    37    1
    30     9    10    1
    31     9    38    1
    32     9    39    1
    33    10    40    1
    34    10    41    1
    35    10    42    1
    36    11    12    2
    37    11    13    1
    38    13    14    1
    39    13    43    1
    40    13    44    1
    41    14    15    2
    42    14    16    1
    43    16    17    1
    44    16    21    1
    45    17    18    1
    46    17    45    1
    47    17    46    1
    48    18    19    1
    49    18    47    1
    50    18    48    1
    51    19    20    1
    52    19    49    1
    53    19    50    1
    54    20    51    1
    55    20    52    1
    56    20    53    1
    57    21    22    1
    58    21    54    1
    59    21    55    1
    60    22    23    1
    61    22    56    1
    62    22    57    1
    63    23    24    1
    64    23    58    1
    65    23    59    1
    66    24    60    1
    67    24    61    1
    68    24    62    1
    69    63    64    1
    70    63    86    1
    71    63    87    1
    72    63    88    1
    73    64    65    1
    74    64    89    1
    75    64    90    1
    76    65    66    1
    77    65    91    1
    78    65    92    1
    79    66    67    1
    80    66    93    1
    81    66    94    1
    82    67    68    1
    83    67    72    1
    84    68    69    1
    85    68    95    1
    86    68    96    1
    87    69    70    1
    88    69    97    1
    89    69    98    1
    90    70    71    1
    91    70    99    1
    92    70   100    1
    93    71   101    1
    94    71   102    1
    95    71   103    1
    96    72    73    2
    97    72    74    1
    98    74    75    1
    99    74   104    1
   100    74   105    1
   101    75    76    2
   102    75    77    1
   103    77    78    1
   104    77    82    1
   105    78    79    1
   106    78   106    1
   107    78   107    1
   108    79    80    1
   109    79   108    1
   110    79   109    1
   111    80    81    1
   112    80   110    1
   113    80   111    1
   114    81   112    1
   115    81   113    1
   116    81   114    1
   117    82    83    1
   118    82   115    1
   119    82   116    1
   120    83    84    1
   121    83   117    1
   122    83   118    1
   123    84    85    1
   124    84   119    1
   125    84   120    1
   126    85   121    1
   127    85   122    1
   128    85   123    1
   129   124   125    1
   130   124   147    1
   131   124   148    1
   132   124   149    1
   133   125   126    1
   134   125   150    1
   135   125   151    1
   136   126   127    1
   137   126   152    1
   138   126   153    1
   139   127   128    1
   140   127   154    1
   141   127   155    1
   142   128   129    1
   143   128   133    1
   144   129   130    1
   145   129   156    1
   146   129   157    1
   147   130   131    1
   148   130   158    1
   149   130   159    1
   150   131   132    1
   151   131   160    1
   152   131   161    1
   153   132   162    1
   154   132   163    1
   155   132   164    1
   156   133   134    2
   157   133   135    1
   158   135   136    1
   159   135   165    1
   160   135   166    1
   161   136   137    2
   162   136   138    1
   163   138   139    1
   164   138   143    1
   165   139   140    1
   166   139   167    1
   167   139   168    1
   168   140   141    1
   169   140   169    1
   170   140   170    1
   171   141   142    1
   172   141   171    1
   173   141   172    1
   174   142   173    1
   175   142   174    1
   176   142   175    1
   177   143   144    1
   178   143   176    1
   179   143   177    1
   180   144   145    1
   181   144   178    1
   182   144   179    1
   183   145   146    1
   184   145   180    1
   185   145   181    1
   186   146   182    1
   187   146   183    1
   188   146   184    1
   189   185   186    1
   190   185   208    1
   191   185   209    1
   192   185   210    1
   193   186   187    1
   194   186   211    1
   195   186   212    1
   196   187   188    1
   197   187   213    1
   198   187   214    1
   199   188   189    1
   200   188   215    1
   201   188   216    1
   202   189   190    1
   203   189   194    1
   204   190   191    1
   205   190   217    1
   206   190   218    1
   207   191   192    1
   208   191   219    1
   209   191   220    1
   210   192   193    1
   211   192   221    1
   212   192   222    1
   213   193   223    1
   214   193   224    1
   215   193   225    1
   216   194   195    2
   217   194   196    1
   218   196   197    1
   219   196   226    1
   220   196   227    1
   221   197   198    2
   222   197   199    1
   223   199   200    1
   224   199   204    1
   225   200   201    1
   226   200   228    1
   227   200   229    1
   228   201   202    1
   229   201   230    1
   230   201   231    1
   231   202   203    1
   232   202   232    1
   233   202   233    1
   234   203   234    1
   235   203   235    1
   236   203   236    1
   237   204   205    1
   238   204   237    1
   239   204   238    1
   240   205   206    1
   241   205   239    1
   242   205   240    1
   243   206   207    1
   244   206   241    1
   245   206   242    1
   246   207   243    1
   247   207   244    1
   248   207   245    1
@<TRIPOS>SUBSTRUCTURE
     1 RES1      245 GROUP             0 ****  ****    0  
