@<TRIPOS>MOLECULE
bicapped_trigonal_prismatic_0_nunpairedes_0_charge_2 Charge: 2 Unpaired_Electrons: 3 XTB_Unpaired_Electrons: 0 XTB_Charge: 2
   119   129     1     0     0
SMALL
NoCharges
****
Generated from Architector

@<TRIPOS>ATOM
     1 Er1       0.0605   -0.0714    0.0746   Er        1 RES1   0.0000
     2 C1       -2.9351    1.3777    4.4595   C.3       1 RES1   0.0000
     3 C2       -2.1129    2.2711    3.5370   C.3       1 RES1   0.0000
     4 N1       -0.6830    1.9707    3.6069   N.am      1 RES1   0.0000
     5 C3        0.0071    1.7628    2.4959   C.2       1 RES1   0.0000
     6 O1       -0.5081    1.8076    1.3513   O.2       1 RES1   0.0000
     7 C4        1.5017    1.5572    2.5118   C.ar      1 RES1   0.0000
     8 C5        2.4347    2.1838    3.3321   C.ar      1 RES1   0.0000
     9 C6        3.7710    2.1190    2.9611   C.ar      1 RES1   0.0000
    10 C7        4.1458    1.4853    1.7819   C.ar      1 RES1   0.0000
    11 C8        3.1589    0.8627    1.0147   C.ar      1 RES1   0.0000
    12 C9        3.1580    0.3226   -0.4100   C.2       1 RES1   0.0000
    13 O2        2.0269    0.3989   -0.9527   O.2       1 RES1   0.0000
    14 N2        4.2224   -0.1514   -1.0528   N.am      1 RES1   0.0000
    15 C10       5.4720   -0.5050   -0.3807   C.3       1 RES1   0.0000
    16 C11       5.2659   -1.6885    0.5594   C.3       1 RES1   0.0000
    17 C12       4.0908   -0.5147   -2.4335   C.ar      1 RES1   0.0000
    18 C13       4.7490   -1.6391   -2.9226   C.ar      1 RES1   0.0000
    19 C14       4.6818   -1.9393   -4.2695   C.ar      1 RES1   0.0000
    20 C15       3.9302   -1.1586   -5.1269   C.ar      1 RES1   0.0000
    21 C16       3.2186   -0.0671   -4.6453   C.ar      1 RES1   0.0000
    22 C17       2.3240    0.7242   -5.5472   C.3       1 RES1   0.0000
    23 C18       3.3328    0.2654   -3.3014   C.ar      1 RES1   0.0000
    24 N3        1.8849    0.8774    1.4340   N.ar      1 RES1   0.0000
    25 C19      -0.1246    1.8352    4.9099   C.ar      1 RES1   0.0000
    26 C20       0.4939    0.6491    5.2844   C.ar      1 RES1   0.0000
    27 C21       1.0069    0.5377    6.5646   C.ar      1 RES1   0.0000
    28 C22       0.8753    1.5741    7.4745   C.ar      1 RES1   0.0000
    29 C23       0.2259    2.7524    7.1192   C.ar      1 RES1   0.0000
    30 C24       0.0105    3.8709    8.0869   C.3       1 RES1   0.0000
    31 C25      -0.2544    2.8746    5.8195   C.ar      1 RES1   0.0000
    32 H1       -3.9872    1.6373    4.3656   H         1 RES1   0.0000
    33 H2       -2.6540    1.5197    5.4997   H         1 RES1   0.0000
    34 H3       -2.8005    0.3279    4.2045   H         1 RES1   0.0000
    35 H4       -2.2700    3.3226    3.8002   H         1 RES1   0.0000
    36 H5       -2.4172    2.1260    2.4980   H         1 RES1   0.0000
    37 H6        2.1342    2.7285    4.2092   H         1 RES1   0.0000
    38 H7        4.5182    2.6023    3.5747   H         1 RES1   0.0000
    39 H8        5.1843    1.5375    1.4975   H         1 RES1   0.0000
    40 H9        5.8691    0.3686    0.1380   H         1 RES1   0.0000
    41 H10       6.2000   -0.7667   -1.1513   H         1 RES1   0.0000
    42 H11       4.5342   -1.4610    1.3313   H         1 RES1   0.0000
    43 H12       6.2097   -1.9431    1.0301   H         1 RES1   0.0000
    44 H13       4.9092   -2.5508    0.0005   H         1 RES1   0.0000
    45 H14       5.2949   -2.3010   -2.2728   H         1 RES1   0.0000
    46 H15       5.2111   -2.7967   -4.6544   H         1 RES1   0.0000
    47 H16       3.8943   -1.4074   -6.1757   H         1 RES1   0.0000
    48 H17       2.4357    0.3942   -6.5747   H         1 RES1   0.0000
    49 H18       2.5410    1.7883   -5.4972   H         1 RES1   0.0000
    50 H19       1.2839    0.5839   -5.2557   H         1 RES1   0.0000
    51 H20       2.8141    1.1396   -2.9406   H         1 RES1   0.0000
    52 H21       0.5506   -0.1751    4.5905   H         1 RES1   0.0000
    53 H22       1.4973   -0.3751    6.8642   H         1 RES1   0.0000
    54 H23       1.2715    1.4493    8.4711   H         1 RES1   0.0000
    55 H24       0.5663    3.7174    9.0066   H         1 RES1   0.0000
    56 H25      -1.0468    3.9526    8.3401   H         1 RES1   0.0000
    57 H26       0.3050    4.8235    7.6512   H         1 RES1   0.0000
    58 H27      -0.7321    3.7963    5.5309   H         1 RES1   0.0000
    59 C26      -4.6280   -2.6146    3.3900   C.3       1 RES1   0.0000
    60 C27      -3.5889   -3.3069    2.5022   C.3       1 RES1   0.0000
    61 N4       -2.3216   -2.5814    2.5489   N.am      1 RES1   0.0000
    62 C28      -2.1143   -1.4853    1.8084   C.2       1 RES1   0.0000
    63 O3       -1.0745   -0.7970    1.9371   O.2       1 RES1   0.0000
    64 C29      -3.0685   -0.9573    0.7331   C.ar      1 RES1   0.0000
    65 C30      -4.4273   -1.1621    0.4822   C.ar      1 RES1   0.0000
    66 C31      -5.0133   -0.5180   -0.6036   C.ar      1 RES1   0.0000
    67 C32      -4.2704    0.3095   -1.4298   C.ar      1 RES1   0.0000
    68 C33      -2.9368    0.5185   -1.0819   C.ar      1 RES1   0.0000
    69 C34      -1.9112    1.3343   -1.8288   C.2       1 RES1   0.0000
    70 O4       -0.7331    0.9123   -1.7628   O.2       1 RES1   0.0000
    71 N5       -2.2328    2.4060   -2.5466   N.am      1 RES1   0.0000
    72 C35      -1.1751    3.0458   -3.3334   C.3       1 RES1   0.0000
    73 C36      -0.7537    4.3848   -2.7424   C.3       1 RES1   0.0000
    74 C37      -3.4676    3.1113   -2.4617   C.ar      1 RES1   0.0000
    75 C38      -4.0711    3.5890   -3.6206   C.ar      1 RES1   0.0000
    76 C39      -5.2244    4.3466   -3.5287   C.ar      1 RES1   0.0000
    77 C40      -5.7942    4.6146   -2.2979   C.ar      1 RES1   0.0000
    78 C41      -5.2151    4.1312   -1.1290   C.ar      1 RES1   0.0000
    79 C42      -5.8616    4.3909    0.1966   C.3       1 RES1   0.0000
    80 C43      -4.0362    3.3969   -1.2234   C.ar      1 RES1   0.0000
    81 N6       -2.3854   -0.1046   -0.0438   N.ar      1 RES1   0.0000
    82 C44      -1.3592   -3.0315    3.5209   C.ar      1 RES1   0.0000
    83 C45      -1.7890   -3.8091    4.5994   C.ar      1 RES1   0.0000
    84 C46      -0.8954   -4.2175    5.5706   C.ar      1 RES1   0.0000
    85 C47       0.4317   -3.8402    5.5149   C.ar      1 RES1   0.0000
    86 C48       0.8927   -3.1002    4.4369   C.ar      1 RES1   0.0000
    87 C49       2.3257   -2.6731    4.3692   C.3       1 RES1   0.0000
    88 C50       0.0019   -2.7293    3.4325   C.ar      1 RES1   0.0000
    89 H28      -5.5743   -3.1459    3.3414   H         1 RES1   0.0000
    90 H29      -4.7834   -1.5792    3.0934   H         1 RES1   0.0000
    91 H30      -4.2990   -2.6013    4.4271   H         1 RES1   0.0000
    92 H31      -3.9000   -3.3884    1.4591   H         1 RES1   0.0000
    93 H32      -3.4172   -4.3263    2.8530   H         1 RES1   0.0000
    94 H33      -5.0647   -1.7841    1.0855   H         1 RES1   0.0000
    95 H34      -6.0643   -0.6727   -0.7992   H         1 RES1   0.0000
    96 H35      -4.7114    0.7631   -2.3027   H         1 RES1   0.0000
    97 H36      -1.5387    3.1844   -4.3529   H         1 RES1   0.0000
    98 H37      -0.3280    2.3590   -3.3506   H         1 RES1   0.0000
    99 H38      -1.5816    5.0893   -2.7381   H         1 RES1   0.0000
   100 H39       0.0419    4.8042   -3.3519   H         1 RES1   0.0000
   101 H40      -0.3874    4.2589   -1.7252   H         1 RES1   0.0000
   102 H41      -3.6590    3.3825   -4.5932   H         1 RES1   0.0000
   103 H42      -5.6816    4.7372   -4.4236   H         1 RES1   0.0000
   104 H43      -6.6911    5.2139   -2.2526   H         1 RES1   0.0000
   105 H44      -6.7355    5.0230    0.0716   H         1 RES1   0.0000
   106 H45      -5.1791    4.8811    0.8874   H         1 RES1   0.0000
   107 H46      -6.1816    3.4531    0.6487   H         1 RES1   0.0000
   108 H47      -3.5447    3.0650   -0.3190   H         1 RES1   0.0000
   109 H48      -2.8126   -4.1163    4.7219   H         1 RES1   0.0000
   110 H49      -1.2482   -4.8221    6.3906   H         1 RES1   0.0000
   111 H50       1.1043   -4.1266    6.3072   H         1 RES1   0.0000
   112 H51       2.8757   -3.0661    5.2179   H         1 RES1   0.0000
   113 H52       2.4018   -1.5871    4.3885   H         1 RES1   0.0000
   114 H53       2.7980   -3.0233    3.4559   H         1 RES1   0.0000
   115 H54       0.4142   -2.2106    2.5783   H         1 RES1   0.0000
   116 N7        0.7480   -2.0218   -0.8503   N.3       1 RES1   0.0000
   117 O5        1.4198   -2.3210   -1.7827   O.2       1 RES1   0.0000
   118 O6        1.2408   -1.8184    0.2744   O.co2     1 RES1   0.0000
   119 O7       -0.4813   -1.8812   -0.9285   O.co2     1 RES1   0.0000
@<TRIPOS>BOND
     1     1     6    1
     2     1    13    1
     3     1    24    1
     4     1    63    1
     5     1    70    1
     6     1    81    1
     7     1   118    1
     8     1   119    1
     9     2     3    1
    10     2    32    1
    11     2    33    1
    12     2    34    1
    13     3     4    1
    14     3    35    1
    15     3    36    1
    16     4     5    1
    17     4    25    1
    18     5     6    2
    19     5     7    1
    20     7     8    1
    21     7    24    2
    22     8     9    2
    23     8    37    1
    24     9    10    1
    25     9    38    1
    26    10    11    2
    27    10    39    1
    28    11    12    1
    29    11    24    1
    30    12    13    2
    31    12    14    1
    32    14    15    1
    33    14    17    1
    34    15    16    1
    35    15    40    1
    36    15    41    1
    37    16    42    1
    38    16    43    1
    39    16    44    1
    40    17    18    1
    41    17    23    2
    42    18    19    2
    43    18    45    1
    44    19    20    1
    45    19    46    1
    46    20    21    2
    47    20    47    1
    48    21    22    1
    49    21    23    1
    50    22    48    1
    51    22    49    1
    52    22    50    1
    53    23    51    1
    54    25    26    1
    55    25    31    2
    56    26    27    2
    57    26    52    1
    58    27    28    1
    59    27    53    1
    60    28    29    2
    61    28    54    1
    62    29    30    1
    63    29    31    1
    64    30    55    1
    65    30    56    1
    66    30    57    1
    67    31    58    1
    68    59    60    1
    69    59    89    1
    70    59    90    1
    71    59    91    1
    72    60    61    1
    73    60    92    1
    74    60    93    1
    75    61    62    1
    76    61    82    1
    77    62    63    2
    78    62    64    1
    79    64    65    1
    80    64    81    2
    81    65    66    2
    82    65    94    1
    83    66    67    1
    84    66    95    1
    85    67    68    2
    86    67    96    1
    87    68    69    1
    88    68    81    1
    89    69    70    2
    90    69    71    1
    91    71    72    1
    92    71    74    1
    93    72    73    1
    94    72    97    1
    95    72    98    1
    96    73    99    1
    97    73   100    1
    98    73   101    1
    99    74    75    1
   100    74    80    2
   101    75    76    2
   102    75   102    1
   103    76    77    1
   104    76   103    1
   105    77    78    2
   106    77   104    1
   107    78    79    1
   108    78    80    1
   109    79   105    1
   110    79   106    1
   111    79   107    1
   112    80   108    1
   113    82    83    1
   114    82    88    2
   115    83    84    2
   116    83   109    1
   117    84    85    1
   118    84   110    1
   119    85    86    2
   120    85   111    1
   121    86    87    1
   122    86    88    1
   123    87   112    1
   124    87   113    1
   125    87   114    1
   126    88   115    1
   127   116   117    2
   128   116   118    1
   129   116   119    1
@<TRIPOS>SUBSTRUCTURE
     1 RES1      119 GROUP             0 ****  ****    0  
