@<TRIPOS>MOLECULE
ICIGOT_geomtry_0_nunpairedes_0_charge_3 Charge: 3 Unpaired_Electrons: 3 XTB_Unpaired_Electrons: 0 XTB_Charge: 3
   137   140     1     0     0
SMALL
NoCharges
****
Generated from Architector

@<TRIPOS>ATOM
     1 Er1      -0.0396   -0.3026    0.0063   Er        1 RES1   0.0000
     2 C1        3.7751   -0.2300   -3.3330   C.3       1 RES1   0.0000
     3 C2        3.7367    1.2895   -3.4123   C.3       1 RES1   0.0000
     4 C3        2.9307    1.7907   -4.6085   C.3       1 RES1   0.0000
     5 C4        1.4240    1.5793   -4.4547   C.3       1 RES1   0.0000
     6 N1        0.7792    2.4494   -3.4625   N.am      1 RES1   0.0000
     7 C5        0.5397    3.8351   -3.8846   C.3       1 RES1   0.0000
     8 C6        1.1536    4.9199   -2.9910   C.3       1 RES1   0.0000
     9 C7        2.6709    4.8275   -2.8529   C.3       1 RES1   0.0000
    10 C8        3.1971    5.9284   -1.9432   C.3       1 RES1   0.0000
    11 C9        0.3694    1.9331   -2.3260   C.2       1 RES1   0.0000
    12 O1        0.6336    0.7575   -1.9535   O.2       1 RES1   0.0000
    13 C10      -0.5552    2.7117   -1.3763   C.3       1 RES1   0.0000
    14 O2       -1.3134    1.7444   -0.6361   O.3       1 RES1   0.0000
    15 C11      -2.6361    1.4970   -1.1400   C.3       1 RES1   0.0000
    16 C12      -3.0135    0.0558   -0.7722   C.2       1 RES1   0.0000
    17 O3       -2.0707   -0.7363   -0.5033   O.2       1 RES1   0.0000
    18 N2       -4.2683   -0.3379   -0.7401   N.am      1 RES1   0.0000
    19 C13      -5.4163    0.5665   -0.8438   C.3       1 RES1   0.0000
    20 C14      -5.6530    1.2979   -2.1705   C.3       1 RES1   0.0000
    21 C15      -5.9320    0.3892   -3.3663   C.3       1 RES1   0.0000
    22 C16      -4.6740   -0.1762   -4.0137   C.3       1 RES1   0.0000
    23 C17      -4.5038   -1.7440   -0.3648   C.3       1 RES1   0.0000
    24 C18      -4.1764   -2.7679   -1.4594   C.3       1 RES1   0.0000
    25 C19      -4.3862   -4.1942   -0.9423   C.3       1 RES1   0.0000
    26 C20      -4.1197   -5.2209   -2.0359   C.3       1 RES1   0.0000
    27 H1        4.4865   -0.5249   -2.5698   H         1 RES1   0.0000
    28 H2        2.7940   -0.6267   -3.0705   H         1 RES1   0.0000
    29 H3        4.0896   -0.6618   -4.2798   H         1 RES1   0.0000
    30 H4        3.3069    1.6782   -2.4839   H         1 RES1   0.0000
    31 H5        4.7575    1.6642   -3.4968   H         1 RES1   0.0000
    32 H6        3.1471    2.8431   -4.7883   H         1 RES1   0.0000
    33 H7        3.2401    1.2390   -5.4968   H         1 RES1   0.0000
    34 H8        0.9298    1.7846   -5.4080   H         1 RES1   0.0000
    35 H9        1.2261    0.5439   -4.1669   H         1 RES1   0.0000
    36 H10       0.9748    3.9301   -4.8808   H         1 RES1   0.0000
    37 H11      -0.5409    4.0024   -3.9836   H         1 RES1   0.0000
    38 H12       0.9068    5.8792   -3.4479   H         1 RES1   0.0000
    39 H13       0.6940    4.9119   -2.0019   H         1 RES1   0.0000
    40 H14       2.9425    3.8545   -2.4415   H         1 RES1   0.0000
    41 H15       3.1376    4.9300   -3.8328   H         1 RES1   0.0000
    42 H16       2.7686    5.8483   -0.9456   H         1 RES1   0.0000
    43 H17       4.2771    5.8631   -1.8584   H         1 RES1   0.0000
    44 H18       2.9480    6.9049   -2.3486   H         1 RES1   0.0000
    45 H19       0.0461    3.2533   -0.6329   H         1 RES1   0.0000
    46 H20      -1.2145    3.4033   -1.9077   H         1 RES1   0.0000
    47 H21      -3.3361    2.2240   -0.7023   H         1 RES1   0.0000
    48 H22      -2.6558    1.5752   -2.2352   H         1 RES1   0.0000
    49 H23      -6.3061   -0.0313   -0.6385   H         1 RES1   0.0000
    50 H24      -5.3206    1.3046   -0.0370   H         1 RES1   0.0000
    51 H25      -6.5333    1.9160   -1.9887   H         1 RES1   0.0000
    52 H26      -4.8331    1.9734   -2.4106   H         1 RES1   0.0000
    53 H27      -6.5904   -0.4230   -3.0619   H         1 RES1   0.0000
    54 H28      -6.4669    0.9764   -4.1112   H         1 RES1   0.0000
    55 H29      -4.0968   -0.7835   -3.3203   H         1 RES1   0.0000
    56 H30      -4.9535   -0.8010   -4.8562   H         1 RES1   0.0000
    57 H31      -4.0442    0.6257   -4.3956   H         1 RES1   0.0000
    58 H32      -3.8691   -1.9609    0.5022   H         1 RES1   0.0000
    59 H33      -5.5498   -1.8504   -0.0773   H         1 RES1   0.0000
    60 H34      -4.8198   -2.6129   -2.3266   H         1 RES1   0.0000
    61 H35      -3.1331   -2.6540   -1.7686   H         1 RES1   0.0000
    62 H36      -3.7162   -4.3767   -0.0996   H         1 RES1   0.0000
    63 H37      -5.4123   -4.3068   -0.5904   H         1 RES1   0.0000
    64 H38      -3.0966   -5.1468   -2.3982   H         1 RES1   0.0000
    65 H39      -4.2712   -6.2235   -1.6489   H         1 RES1   0.0000
    66 H40      -4.7976   -5.0779   -2.8734   H         1 RES1   0.0000
    67 C21      -3.2355   -2.3398    3.4323   C.3       1 RES1   0.0000
    68 C22      -2.9544   -1.3012    4.5133   C.3       1 RES1   0.0000
    69 C23      -1.7259   -1.6034    5.3766   C.3       1 RES1   0.0000
    70 C24      -0.3724   -1.5934    4.6631   C.3       1 RES1   0.0000
    71 N3        0.1481   -0.2682    4.2851   N.am      1 RES1   0.0000
    72 C25       0.5133    0.6366    5.3827   C.3       1 RES1   0.0000
    73 C26      -0.1570    2.0193    5.4022   C.3       1 RES1   0.0000
    74 C27      -1.6776    1.9793    5.2918   C.3       1 RES1   0.0000
    75 C28      -2.2780    3.3757    5.3646   C.3       1 RES1   0.0000
    76 C29       0.4805   -0.0894    3.0199   C.2       1 RES1   0.0000
    77 O4        0.2340   -0.9291    2.1177   O.2       1 RES1   0.0000
    78 C30       1.1789    1.2097    2.5818   C.3       1 RES1   0.0000
    79 O5        1.6357    1.1009    1.2284   O.3       1 RES1   0.0000
    80 C31       2.9827    0.6150    1.0846   C.3       1 RES1   0.0000
    81 C32       3.0087   -0.7190    0.3291   C.2       1 RES1   0.0000
    82 O6        1.9199   -1.1937   -0.0765   O.2       1 RES1   0.0000
    83 N4        4.1648   -1.2985    0.0628   N.am      1 RES1   0.0000
    84 C33       5.4614   -0.7026    0.3921   C.3       1 RES1   0.0000
    85 C34       5.8985   -0.6803    1.8633   C.3       1 RES1   0.0000
    86 C35       6.0523   -2.0559    2.5093   C.3       1 RES1   0.0000
    87 C36       4.7375   -2.6535    2.9960   C.3       1 RES1   0.0000
    88 C37       4.1374   -2.4435   -0.8584   C.3       1 RES1   0.0000
    89 C38       3.9804   -3.8426   -0.2634   C.3       1 RES1   0.0000
    90 C39       3.9720   -4.8378   -1.4283   C.3       1 RES1   0.0000
    91 C40       3.8399   -6.2759   -0.9538   C.3       1 RES1   0.0000
    92 H41      -4.1819   -2.1118    2.9440   H         1 RES1   0.0000
    93 H42      -2.4451   -2.3788    2.6788   H         1 RES1   0.0000
    94 H43      -3.3310   -3.3254    3.8812   H         1 RES1   0.0000
    95 H44      -2.8689   -0.3077    4.0666   H         1 RES1   0.0000
    96 H45      -3.8163   -1.2692    5.1805   H         1 RES1   0.0000
    97 H46      -1.7086   -0.9127    6.2203   H         1 RES1   0.0000
    98 H47      -1.8354   -2.6090    5.7859   H         1 RES1   0.0000
    99 H48       0.3806   -2.0456    5.3171   H         1 RES1   0.0000
   100 H49      -0.4345   -2.1924    3.7521   H         1 RES1   0.0000
   101 H50       0.2353    0.1177    6.3008   H         1 RES1   0.0000
   102 H51       1.6038    0.7617    5.4062   H         1 RES1   0.0000
   103 H52       0.1029    2.4710    6.3605   H         1 RES1   0.0000
   104 H53       0.2547    2.6716    4.6301   H         1 RES1   0.0000
   105 H54      -1.9560    1.5106    4.3464   H         1 RES1   0.0000
   106 H55      -2.0916    1.3789    6.1006   H         1 RES1   0.0000
   107 H56      -1.9000    4.0135    4.5670   H         1 RES1   0.0000
   108 H57      -3.3601    3.3291    5.2846   H         1 RES1   0.0000
   109 H58      -2.0355    3.8373    6.3172   H         1 RES1   0.0000
   110 H59       0.4480    2.0279    2.5741   H         1 RES1   0.0000
   111 H60       2.0060    1.4688    3.2540   H         1 RES1   0.0000
   112 H61       3.5329    1.3604    0.4901   H         1 RES1   0.0000
   113 H62       3.4667    0.5063    2.0607   H         1 RES1   0.0000
   114 H63       6.2178   -1.2642   -0.1604   H         1 RES1   0.0000
   115 H64       5.4550    0.3206   -0.0038   H         1 RES1   0.0000
   116 H65       6.8664   -0.1764    1.8629   H         1 RES1   0.0000
   117 H66       5.2328   -0.0732    2.4762   H         1 RES1   0.0000
   118 H67       6.5340   -2.7345    1.8069   H         1 RES1   0.0000
   119 H68       6.7185   -1.9487    3.3646   H         1 RES1   0.0000
   120 H69       4.0196   -2.7833    2.1904   H         1 RES1   0.0000
   121 H70       4.9273   -3.6276    3.4353   H         1 RES1   0.0000
   122 H71       4.2910   -2.0280    3.7673   H         1 RES1   0.0000
   123 H72       3.2865   -2.2780   -1.5275   H         1 RES1   0.0000
   124 H73       5.0636   -2.4212   -1.4369   H         1 RES1   0.0000
   125 H74       4.8079   -4.0768    0.4063   H         1 RES1   0.0000
   126 H75       3.0442   -3.9150    0.2960   H         1 RES1   0.0000
   127 H76       3.1437   -4.6002   -2.1006   H         1 RES1   0.0000
   128 H77       4.9006   -4.7320   -1.9920   H         1 RES1   0.0000
   129 H78       2.9095   -6.4195   -0.4105   H         1 RES1   0.0000
   130 H79       3.8478   -6.9467   -1.8072   H         1 RES1   0.0000
   131 H80       4.6697   -6.5410   -0.3051   H         1 RES1   0.0000
   132 O7       -1.7725    0.7939    1.8689   O.3       1 RES1   0.0000
   133 H81      -2.3305    0.1138    2.2788   H         1 RES1   0.0000
   134 H82      -2.0004    1.6253    2.3107   H         1 RES1   0.0000
   135 O8       -0.0781   -1.9353   -1.8918   O.3       1 RES1   0.0000
   136 H83       0.7888   -2.1170   -2.2859   H         1 RES1   0.0000
   137 H84      -0.6836   -1.7674   -2.6300   H         1 RES1   0.0000
@<TRIPOS>BOND
     1     1    12    1
     2     1    14    1
     3     1    17    1
     4     1    77    1
     5     1    79    1
     6     1    82    1
     7     1   132    1
     8     1   135    1
     9     2     3    1
    10     2    27    1
    11     2    28    1
    12     2    29    1
    13     3     4    1
    14     3    30    1
    15     3    31    1
    16     4     5    1
    17     4    32    1
    18     4    33    1
    19     5     6    1
    20     5    34    1
    21     5    35    1
    22     6     7    1
    23     6    11    1
    24     7     8    1
    25     7    36    1
    26     7    37    1
    27     8     9    1
    28     8    38    1
    29     8    39    1
    30     9    10    1
    31     9    40    1
    32     9    41    1
    33    10    42    1
    34    10    43    1
    35    10    44    1
    36    11    12    2
    37    11    13    1
    38    13    14    1
    39    13    45    1
    40    13    46    1
    41    14    15    1
    42    15    16    1
    43    15    47    1
    44    15    48    1
    45    16    17    2
    46    16    18    1
    47    18    19    1
    48    18    23    1
    49    19    20    1
    50    19    49    1
    51    19    50    1
    52    20    21    1
    53    20    51    1
    54    20    52    1
    55    21    22    1
    56    21    53    1
    57    21    54    1
    58    22    55    1
    59    22    56    1
    60    22    57    1
    61    23    24    1
    62    23    58    1
    63    23    59    1
    64    24    25    1
    65    24    60    1
    66    24    61    1
    67    25    26    1
    68    25    62    1
    69    25    63    1
    70    26    64    1
    71    26    65    1
    72    26    66    1
    73    67    68    1
    74    67    92    1
    75    67    93    1
    76    67    94    1
    77    68    69    1
    78    68    95    1
    79    68    96    1
    80    69    70    1
    81    69    97    1
    82    69    98    1
    83    70    71    1
    84    70    99    1
    85    70   100    1
    86    71    72    1
    87    71    76    1
    88    72    73    1
    89    72   101    1
    90    72   102    1
    91    73    74    1
    92    73   103    1
    93    73   104    1
    94    74    75    1
    95    74   105    1
    96    74   106    1
    97    75   107    1
    98    75   108    1
    99    75   109    1
   100    76    77    2
   101    76    78    1
   102    78    79    1
   103    78   110    1
   104    78   111    1
   105    79    80    1
   106    80    81    1
   107    80   112    1
   108    80   113    1
   109    81    82    2
   110    81    83    1
   111    83    84    1
   112    83    88    1
   113    84    85    1
   114    84   114    1
   115    84   115    1
   116    85    86    1
   117    85   116    1
   118    85   117    1
   119    86    87    1
   120    86   118    1
   121    86   119    1
   122    87   120    1
   123    87   121    1
   124    87   122    1
   125    88    89    1
   126    88   123    1
   127    88   124    1
   128    89    90    1
   129    89   125    1
   130    89   126    1
   131    90    91    1
   132    90   127    1
   133    90   128    1
   134    91   129    1
   135    91   130    1
   136    91   131    1
   137   132   133    1
   138   132   134    1
   139   135   136    1
   140   135   137    1
@<TRIPOS>SUBSTRUCTURE
     1 RES1      137 GROUP             0 ****  ****    0  
