@<TRIPOS>MOLECULE
ICIGOT_geomtry_0_nunpairedes_0_charge_2 Charge: 2 Unpaired_Electrons: 3 XTB_Unpaired_Electrons: 0 XTB_Charge: 2
    91    99     1     0     0
SMALL
NoCharges
****
Generated from Architector

@<TRIPOS>ATOM
     1 Er1      -0.0498    0.1393   -0.2549   Er        1 RES1   0.0000
     2 C1       -3.1247    3.1798   -1.6106   C.3       1 RES1   0.0000
     3 N1       -3.5141    2.3214   -0.4982   N.am      1 RES1   0.0000
     4 C2       -2.5411    1.6749    0.1185   C.2       1 RES1   0.0000
     5 O1       -1.3450    1.8204   -0.2171   O.2       1 RES1   0.0000
     6 C3       -2.8519    0.7022    1.2577   C.3       1 RES1   0.0000
     7 O2       -1.6494    0.0705    1.7028   O.3       1 RES1   0.0000
     8 C4       -1.1600    0.4753    2.9737   C.3       1 RES1   0.0000
     9 C5        0.1157    1.3329    2.8333   C.2       1 RES1   0.0000
    10 O3        0.5491    1.5097    1.6839   O.2       1 RES1   0.0000
    11 N2        0.6703    1.7579    3.9703   N.am      1 RES1   0.0000
    12 C6        0.0053    1.5830    5.2563   C.3       1 RES1   0.0000
    13 C7        1.9354    2.4286    4.0547   C.ar      1 RES1   0.0000
    14 C8        2.8141    2.4856    2.9756   C.ar      1 RES1   0.0000
    15 C9        4.0461    3.1052    3.1048   C.ar      1 RES1   0.0000
    16 C10       4.4333    3.6731    4.3057   C.ar      1 RES1   0.0000
    17 C11       3.5621    3.6195    5.3777   C.ar      1 RES1   0.0000
    18 C12       2.3264    3.0097    5.2621   C.ar      1 RES1   0.0000
    19 C13      -4.8852    2.3126   -0.0976   C.ar      1 RES1   0.0000
    20 C14      -5.5182    3.5396    0.0692   C.ar      1 RES1   0.0000
    21 C15      -6.8451    3.5808    0.4565   C.ar      1 RES1   0.0000
    22 C16      -7.5315    2.4054    0.7130   C.ar      1 RES1   0.0000
    23 C17      -6.9002    1.1863    0.5330   C.ar      1 RES1   0.0000
    24 C18      -5.5867    1.1284    0.0988   C.ar      1 RES1   0.0000
    25 H1       -2.5946    2.5844   -2.3569   H         1 RES1   0.0000
    26 H2       -4.0149    3.6086   -2.0580   H         1 RES1   0.0000
    27 H3       -2.4538    3.9733   -1.2767   H         1 RES1   0.0000
    28 H4       -3.3686    1.2127    2.0753   H         1 RES1   0.0000
    29 H5       -3.4761   -0.1151    0.8876   H         1 RES1   0.0000
    30 H6       -1.9304    1.0186    3.5214   H         1 RES1   0.0000
    31 H7       -0.8941   -0.4374    3.5245   H         1 RES1   0.0000
    32 H8       -0.8707    0.9477    5.2163   H         1 RES1   0.0000
    33 H9        0.7184    1.1327    5.9471   H         1 RES1   0.0000
    34 H10      -0.3064    2.5618    5.6275   H         1 RES1   0.0000
    35 H11       2.5482    2.0585    2.0231   H         1 RES1   0.0000
    36 H12       4.7024    3.1461    2.2503   H         1 RES1   0.0000
    37 H13       5.3931    4.1539    4.4107   H         1 RES1   0.0000
    38 H14       3.8421    4.0583    6.3210   H         1 RES1   0.0000
    39 H15       1.6994    3.0119    6.1362   H         1 RES1   0.0000
    40 H16      -4.9746    4.4573   -0.1004   H         1 RES1   0.0000
    41 H17      -7.3367    4.5343    0.5551   H         1 RES1   0.0000
    42 H18      -8.5571    2.4325    1.0436   H         1 RES1   0.0000
    43 H19      -7.4371    0.2713    0.7204   H         1 RES1   0.0000
    44 H20      -5.1368    0.1728   -0.1248   H         1 RES1   0.0000
    45 C19      -0.0401   -3.4772   -3.8362   C.3       1 RES1   0.0000
    46 N3        0.5157   -2.2091   -3.3710   N.am      1 RES1   0.0000
    47 C20       0.7194   -1.9728   -2.0797   C.2       1 RES1   0.0000
    48 O4        1.2501   -0.9420   -1.6096   O.2       1 RES1   0.0000
    49 C21       0.2239   -2.9965   -1.0374   C.3       1 RES1   0.0000
    50 O5        0.0890   -2.3339    0.2191   O.3       1 RES1   0.0000
    51 C22       0.8880   -2.7729    1.3127   C.3       1 RES1   0.0000
    52 C23       1.9982   -1.7437    1.5578   C.2       1 RES1   0.0000
    53 O6        1.8349   -0.6339    1.0119   O.2       1 RES1   0.0000
    54 N4        3.0441   -2.0149    2.3370   N.am      1 RES1   0.0000
    55 C24       4.0623   -0.9752    2.4491   C.3       1 RES1   0.0000
    56 C25       3.2807   -3.2116    3.0846   C.ar      1 RES1   0.0000
    57 C26       4.5965   -3.6033    3.3337   C.ar      1 RES1   0.0000
    58 C27       4.8692   -4.7486    4.0608   C.ar      1 RES1   0.0000
    59 C28       3.8422   -5.5455    4.5337   C.ar      1 RES1   0.0000
    60 C29       2.5368   -5.1419    4.3236   C.ar      1 RES1   0.0000
    61 C30       2.2509   -3.9745    3.6345   C.ar      1 RES1   0.0000
    62 C31       0.7635   -1.2386   -4.4059   C.ar      1 RES1   0.0000
    63 C32       1.0101    0.1111   -4.1492   C.ar      1 RES1   0.0000
    64 C33       1.1284    1.0115   -5.1954   C.ar      1 RES1   0.0000
    65 C34       1.0469    0.5966   -6.5120   C.ar      1 RES1   0.0000
    66 C35       0.8632   -0.7492   -6.7702   C.ar      1 RES1   0.0000
    67 C36       0.7158   -1.6555   -5.7372   C.ar      1 RES1   0.0000
    68 H21      -0.3108   -4.1495   -3.0285   H         1 RES1   0.0000
    69 H22       0.6991   -3.9973   -4.4470   H         1 RES1   0.0000
    70 H23      -0.9257   -3.2686   -4.4409   H         1 RES1   0.0000
    71 H24       0.9113   -3.8446   -0.9797   H         1 RES1   0.0000
    72 H25      -0.7780   -3.3457   -1.3132   H         1 RES1   0.0000
    73 H26       1.2573   -3.7897    1.1638   H         1 RES1   0.0000
    74 H27       0.1890   -2.7622    2.1565   H         1 RES1   0.0000
    75 H28       3.6971   -0.0572    1.9929   H         1 RES1   0.0000
    76 H29       4.9718   -1.2710    1.9272   H         1 RES1   0.0000
    77 H30       4.2762   -0.8035    3.5020   H         1 RES1   0.0000
    78 H31       5.4297   -3.0247    2.9720   H         1 RES1   0.0000
    79 H32       5.8954   -5.0095    4.2584   H         1 RES1   0.0000
    80 H33       4.0509   -6.4555    5.0727   H         1 RES1   0.0000
    81 H34       1.7272   -5.7356    4.7134   H         1 RES1   0.0000
    82 H35       1.2232   -3.6599    3.5806   H         1 RES1   0.0000
    83 H36       1.1147    0.5090   -3.1478   H         1 RES1   0.0000
    84 H37       1.2900    2.0507   -4.9589   H         1 RES1   0.0000
    85 H38       1.1316    1.3037   -7.3221   H         1 RES1   0.0000
    86 H39       0.8294   -1.1012   -7.7876   H         1 RES1   0.0000
    87 H40       0.5696   -2.6853   -6.0077   H         1 RES1   0.0000
    88 N5       -1.9312   -0.4047   -1.8955   N.3       1 RES1   0.0000
    89 O7       -2.8809   -0.6701   -2.5598   O.2       1 RES1   0.0000
    90 O8       -1.0521    0.3735   -2.2733   O.co2     1 RES1   0.0000
    91 O9       -1.7956   -0.9142   -0.7586   O.co2     1 RES1   0.0000
@<TRIPOS>BOND
     1     1     5    1
     2     1     7    1
     3     1    10    1
     4     1    48    1
     5     1    50    1
     6     1    53    1
     7     1    90    1
     8     1    91    1
     9     2     3    1
    10     2    25    1
    11     2    26    1
    12     2    27    1
    13     3     4    1
    14     3    19    1
    15     4     5    2
    16     4     6    1
    17     6     7    1
    18     6    28    1
    19     6    29    1
    20     7     8    1
    21     8     9    1
    22     8    30    1
    23     8    31    1
    24     9    10    2
    25     9    11    1
    26    11    12    1
    27    11    13    1
    28    12    32    1
    29    12    33    1
    30    12    34    1
    31    13    14    1
    32    13    18    2
    33    14    15    2
    34    14    35    1
    35    15    16    1
    36    15    36    1
    37    16    17    2
    38    16    37    1
    39    17    18    1
    40    17    38    1
    41    18    39    1
    42    19    20    1
    43    19    24    2
    44    20    21    2
    45    20    40    1
    46    21    22    1
    47    21    41    1
    48    22    23    2
    49    22    42    1
    50    23    24    1
    51    23    43    1
    52    24    44    1
    53    45    46    1
    54    45    68    1
    55    45    69    1
    56    45    70    1
    57    46    47    1
    58    46    62    1
    59    47    48    2
    60    47    49    1
    61    49    50    1
    62    49    71    1
    63    49    72    1
    64    50    51    1
    65    51    52    1
    66    51    73    1
    67    51    74    1
    68    52    53    2
    69    52    54    1
    70    54    55    1
    71    54    56    1
    72    55    75    1
    73    55    76    1
    74    55    77    1
    75    56    57    1
    76    56    61    2
    77    57    58    2
    78    57    78    1
    79    58    59    1
    80    58    79    1
    81    59    60    2
    82    59    80    1
    83    60    61    1
    84    60    81    1
    85    61    82    1
    86    62    63    1
    87    62    67    2
    88    63    64    2
    89    63    83    1
    90    64    65    1
    91    64    84    1
    92    65    66    2
    93    65    85    1
    94    66    67    1
    95    66    86    1
    96    67    87    1
    97    88    89    2
    98    88    90    1
    99    88    91    1
@<TRIPOS>SUBSTRUCTURE
     1 RES1       91 GROUP             0 ****  ****    0  
