@<TRIPOS>MOLECULE
ICIGOT_geomtry_0_nunpairedes_0_charge_2 Charge: 2 Unpaired_Electrons: 3 XTB_Unpaired_Electrons: 0 XTB_Charge: 2
   231   235     1     0     0
SMALL
NoCharges
****
Generated from Architector

@<TRIPOS>ATOM
     1 Er1      -0.1851   -0.0728   -0.1588   Er        1 RES1   0.0000
     2 C1        6.2962   -2.8840    0.9020   C.3       1 RES1   0.0000
     3 C2        5.3346   -2.4126    1.9845   C.3       1 RES1   0.0000
     4 C3        4.9540   -0.9396    1.8302   C.3       1 RES1   0.0000
     5 C4        4.0537   -0.3518    2.9306   C.3       1 RES1   0.0000
     6 C5        3.8064    1.1566    2.7809   C.3       1 RES1   0.0000
     7 C6        5.0407    2.0479    3.0656   C.3       1 RES1   0.0000
     8 C7        6.2852    1.8835    2.1981   C.3       1 RES1   0.0000
     9 C8        2.7813    1.6781    3.8104   C.3       1 RES1   0.0000
    10 N1        1.4488    1.0705    3.9724   N.am      1 RES1   0.0000
    11 C9        0.8858    1.2625    5.3160   C.3       1 RES1   0.0000
    12 C10       0.9773    0.1469    6.3927   C.3       1 RES1   0.0000
    13 C11       0.1102    0.6504    7.5715   C.3       1 RES1   0.0000
    14 C12      -0.3623   -0.4069    8.5676   C.3       1 RES1   0.0000
    15 C13       2.4537   -0.0824    6.7714   C.3       1 RES1   0.0000
    16 C14       2.7992   -0.9350    8.0037   C.3       1 RES1   0.0000
    17 C15       2.3212   -2.3885    7.9773   C.3       1 RES1   0.0000
    18 C16       2.8673   -3.1735    9.1649   C.3       1 RES1   0.0000
    19 C17       0.6800    0.8462    2.9083   C.2       1 RES1   0.0000
    20 O1        1.0562    0.9901    1.7328   O.2       1 RES1   0.0000
    21 C18      -0.7522    0.3004    3.1102   C.3       1 RES1   0.0000
    22 O2       -1.4042    0.3480    1.8498   O.3       1 RES1   0.0000
    23 C19      -2.4658    1.2803    1.6886   C.3       1 RES1   0.0000
    24 C20      -2.2981    1.9689    0.3166   C.2       1 RES1   0.0000
    25 O3       -1.2196    1.8206   -0.3000   O.2       1 RES1   0.0000
    26 N2       -3.2821    2.7239   -0.1299   N.am      1 RES1   0.0000
    27 C21      -3.1519    3.4155   -1.4078   C.3       1 RES1   0.0000
    28 C22      -2.8502    4.9156   -1.2413   C.3       1 RES1   0.0000
    29 C23      -2.9342    5.6164   -2.6051   C.3       1 RES1   0.0000
    30 C24      -4.3374    5.6953   -3.1993   C.3       1 RES1   0.0000
    31 C25      -1.4526    5.0807   -0.6200   C.3       1 RES1   0.0000
    32 C26      -1.0782    6.4983   -0.1698   C.3       1 RES1   0.0000
    33 C27      -1.5383    6.8911    1.2384   C.3       1 RES1   0.0000
    34 C28      -3.0504    6.9546    1.4319   C.3       1 RES1   0.0000
    35 C29      -4.5619    2.8581    0.5394   C.3       1 RES1   0.0000
    36 C30      -5.6728    1.9998   -0.1045   C.3       1 RES1   0.0000
    37 C31      -5.2556    0.5371   -0.3052   C.3       1 RES1   0.0000
    38 C32      -6.2670   -0.2292   -1.1539   C.3       1 RES1   0.0000
    39 C33      -6.9885    2.1642    0.6854   C.3       1 RES1   0.0000
    40 C34      -7.2247    1.3135    1.9423   C.3       1 RES1   0.0000
    41 C35      -6.3700    1.6052    3.1812   C.3       1 RES1   0.0000
    42 C36      -6.4809    3.0435    3.6791   C.3       1 RES1   0.0000
    43 H1        6.5815   -3.9121    1.1026   H         1 RES1   0.0000
    44 H2        7.1972   -2.2791    0.8950   H         1 RES1   0.0000
    45 H3        5.8351   -2.8423   -0.0822   H         1 RES1   0.0000
    46 H4        5.8079   -2.5642    2.9485   H         1 RES1   0.0000
    47 H5        4.4453   -3.0468    1.9439   H         1 RES1   0.0000
    48 H6        4.4376   -0.8306    0.8843   H         1 RES1   0.0000
    49 H7        5.8800   -0.3802    1.7579   H         1 RES1   0.0000
    50 H8        4.4792   -0.5331    3.9180   H         1 RES1   0.0000
    51 H9        3.0787   -0.8519    2.9009   H         1 RES1   0.0000
    52 H10       3.4313    1.3506    1.7711   H         1 RES1   0.0000
    53 H11       5.3462    1.9005    4.1034   H         1 RES1   0.0000
    54 H12       4.7114    3.0853    2.9683   H         1 RES1   0.0000
    55 H13       6.8702    1.0211    2.5029   H         1 RES1   0.0000
    56 H14       6.9226    2.7560    2.3217   H         1 RES1   0.0000
    57 H15       6.0274    1.7975    1.1458   H         1 RES1   0.0000
    58 H16       2.6153    2.7392    3.5943   H         1 RES1   0.0000
    59 H17       3.2618    1.6047    4.7848   H         1 RES1   0.0000
    60 H18      -0.1642    1.5312    5.2069   H         1 RES1   0.0000
    61 H19       1.3947    2.1320    5.7377   H         1 RES1   0.0000
    62 H20       0.5445   -0.7830    6.0093   H         1 RES1   0.0000
    63 H21      -0.7832    1.1301    7.1593   H         1 RES1   0.0000
    64 H22       0.6657    1.4168    8.1142   H         1 RES1   0.0000
    65 H23      -0.8432   -1.2390    8.0583   H         1 RES1   0.0000
    66 H24      -1.0892    0.0378    9.2434   H         1 RES1   0.0000
    67 H25       0.4564   -0.7826    9.1694   H         1 RES1   0.0000
    68 H26       2.9022    0.8966    6.9590   H         1 RES1   0.0000
    69 H27       2.9552   -0.5188    5.9037   H         1 RES1   0.0000
    70 H28       2.4441   -0.4396    8.9076   H         1 RES1   0.0000
    71 H29       3.8918   -0.9357    8.0822   H         1 RES1   0.0000
    72 H30       2.6626   -2.8701    7.0615   H         1 RES1   0.0000
    73 H31       1.2326   -2.4368    7.9969   H         1 RES1   0.0000
    74 H32       3.9543   -3.1702    9.1592   H         1 RES1   0.0000
    75 H33       2.5293   -4.2050    9.1166   H         1 RES1   0.0000
    76 H34       2.5255   -2.7434   10.1028   H         1 RES1   0.0000
    77 H35      -1.3371    0.8343    3.8637   H         1 RES1   0.0000
    78 H36      -0.6597   -0.7564    3.3987   H         1 RES1   0.0000
    79 H37      -2.4532    2.0612    2.4611   H         1 RES1   0.0000
    80 H38      -3.4078    0.7164    1.7108   H         1 RES1   0.0000
    81 H39      -4.0892    3.2788   -1.9460   H         1 RES1   0.0000
    82 H40      -2.3479    2.9416   -1.9753   H         1 RES1   0.0000
    83 H41      -3.6039    5.3606   -0.5875   H         1 RES1   0.0000
    84 H42      -2.2699    5.1085   -3.3075   H         1 RES1   0.0000
    85 H43      -2.5688    6.6367   -2.4799   H         1 RES1   0.0000
    86 H44      -4.7359    4.7150   -3.4476   H         1 RES1   0.0000
    87 H45      -4.2956    6.2743   -4.1174   H         1 RES1   0.0000
    88 H46      -5.0258    6.1926   -2.5198   H         1 RES1   0.0000
    89 H47      -0.7285    4.7463   -1.3683   H         1 RES1   0.0000
    90 H48      -1.3478    4.4117    0.2389   H         1 RES1   0.0000
    91 H49      -1.4568    7.2311   -0.8828   H         1 RES1   0.0000
    92 H50       0.0126    6.5708   -0.1837   H         1 RES1   0.0000
    93 H51      -1.1264    7.8821    1.4437   H         1 RES1   0.0000
    94 H52      -1.1088    6.1977    1.9683   H         1 RES1   0.0000
    95 H53      -3.5027    7.5679    0.6559   H         1 RES1   0.0000
    96 H54      -3.2798    7.4023    2.3964   H         1 RES1   0.0000
    97 H55      -3.4946    5.9609    1.4114   H         1 RES1   0.0000
    98 H56      -4.8541    3.9090    0.4849   H         1 RES1   0.0000
    99 H57      -4.4694    2.6008    1.5886   H         1 RES1   0.0000
   100 H58      -5.8703    2.4150   -1.0995   H         1 RES1   0.0000
   101 H59      -5.1566    0.0370    0.6603   H         1 RES1   0.0000
   102 H60      -4.2824    0.4966   -0.8048   H         1 RES1   0.0000
   103 H61      -7.2216   -0.3098   -0.6419   H         1 RES1   0.0000
   104 H62      -5.9018   -1.2324   -1.3558   H         1 RES1   0.0000
   105 H63      -6.4220    0.2723   -2.1062   H         1 RES1   0.0000
   106 H64      -7.8060    1.9290    0.0022   H         1 RES1   0.0000
   107 H65      -7.1007    3.2172    0.9459   H         1 RES1   0.0000
   108 H66      -7.1284    0.2537    1.7001   H         1 RES1   0.0000
   109 H67      -8.2681    1.4756    2.2236   H         1 RES1   0.0000
   110 H68      -5.3203    1.3496    2.9963   H         1 RES1   0.0000
   111 H69      -6.7160    0.9384    3.9764   H         1 RES1   0.0000
   112 H70      -6.1220    3.7561    2.9397   H         1 RES1   0.0000
   113 H71      -5.8982    3.1688    4.5893   H         1 RES1   0.0000
   114 H72      -7.5175    3.2804    3.9032   H         1 RES1   0.0000
   115 C37       6.3563   -2.4520    5.3920   C.3       1 RES1   0.0000
   116 C38       5.2744   -3.2586    6.1023   C.3       1 RES1   0.0000
   117 C39       4.3440   -4.1340    5.2474   C.3       1 RES1   0.0000
   118 C40       3.2019   -3.4743    4.4440   C.3       1 RES1   0.0000
   119 C41       2.2804   -4.5948    3.9057   C.3       1 RES1   0.0000
   120 C42       1.1628   -4.9304    4.9099   C.3       1 RES1   0.0000
   121 C43       0.2051   -3.8146    5.3172   C.3       1 RES1   0.0000
   122 C44       1.8695   -4.5538    2.3946   C.3       1 RES1   0.0000
   123 N3        0.7804   -3.7157    1.9063   N.am      1 RES1   0.0000
   124 C45      -0.6000   -4.1993    2.1297   C.3       1 RES1   0.0000
   125 C46      -1.2676   -4.7694    0.8571   C.3       1 RES1   0.0000
   126 C47      -0.4622   -5.9776    0.3445   C.3       1 RES1   0.0000
   127 C48      -0.9924   -6.6177   -0.9373   C.3       1 RES1   0.0000
   128 C49      -2.7187   -5.2029    1.1414   C.3       1 RES1   0.0000
   129 C50      -3.7388   -4.1083    1.4910   C.3       1 RES1   0.0000
   130 C51      -3.9333   -3.8374    2.9863   C.3       1 RES1   0.0000
   131 C52      -5.0083   -2.7768    3.2106   C.3       1 RES1   0.0000
   132 C53       0.8700   -2.6376    1.1367   C.2       1 RES1   0.0000
   133 O4       -0.1236   -1.8818    1.0229   O.2       1 RES1   0.0000
   134 C54       2.0773   -2.2988    0.2369   C.3       1 RES1   0.0000
   135 O5        2.0039   -0.8845    0.0306   O.3       1 RES1   0.0000
   136 C55       2.9814   -0.2485   -0.7957   C.3       1 RES1   0.0000
   137 C56       2.2632    0.4834   -1.9427   C.2       1 RES1   0.0000
   138 O6        1.0235    0.5844   -1.8870   O.2       1 RES1   0.0000
   139 N4        2.9730    0.9186   -2.9776   N.am      1 RES1   0.0000
   140 C57       2.2932    0.9085   -4.2853   C.3       1 RES1   0.0000
   141 C58       1.2187    1.9675   -4.5921   C.3       1 RES1   0.0000
   142 C59       1.8766    3.2971   -5.0039   C.3       1 RES1   0.0000
   143 C60       1.0335    4.5329   -4.7023   C.3       1 RES1   0.0000
   144 C61       0.3553    1.3616   -5.7176   C.3       1 RES1   0.0000
   145 C62      -0.9219    2.1166   -6.0908   C.3       1 RES1   0.0000
   146 C63      -1.9131    2.2413   -4.9327   C.3       1 RES1   0.0000
   147 C64      -3.2487    2.8165   -5.3923   C.3       1 RES1   0.0000
   148 C65       4.4251    1.0163   -2.9485   C.3       1 RES1   0.0000
   149 C66       5.0384    2.1058   -2.0385   C.3       1 RES1   0.0000
   150 C67       6.5564    2.0221   -2.2969   C.3       1 RES1   0.0000
   151 C68       7.4339    3.0156   -1.5416   C.3       1 RES1   0.0000
   152 C69       4.4072    3.4617   -2.3808   C.3       1 RES1   0.0000
   153 C70       4.5743    4.6009   -1.3690   C.3       1 RES1   0.0000
   154 C71       4.0259    4.3289    0.0337   C.3       1 RES1   0.0000
   155 C72       2.5233    4.0619    0.0706   C.3       1 RES1   0.0000
   156 H73       5.9431   -1.6168    4.8325   H         1 RES1   0.0000
   157 H74       6.9449   -3.0821    4.7291   H         1 RES1   0.0000
   158 H75       7.0297   -2.0396    6.1400   H         1 RES1   0.0000
   159 H76       5.7872   -3.9418    6.7843   H         1 RES1   0.0000
   160 H77       4.6790   -2.5749    6.7021   H         1 RES1   0.0000
   161 H78       4.9561   -4.7242    4.5643   H         1 RES1   0.0000
   162 H79       3.8859   -4.8445    5.9403   H         1 RES1   0.0000
   163 H80       2.6435   -2.7952    5.0877   H         1 RES1   0.0000
   164 H81       3.6008   -2.8758    3.6334   H         1 RES1   0.0000
   165 H82       2.9113   -5.4938    3.8943   H         1 RES1   0.0000
   166 H83       0.5936   -5.7811    4.5327   H         1 RES1   0.0000
   167 H84       1.6463   -5.2863    5.8224   H         1 RES1   0.0000
   168 H85      -0.3541   -3.4181    4.4778   H         1 RES1   0.0000
   169 H86      -0.4982   -4.2139    6.0439   H         1 RES1   0.0000
   170 H87       0.7317   -2.9943    5.7927   H         1 RES1   0.0000
   171 H88       2.7759   -4.3290    1.8363   H         1 RES1   0.0000
   172 H89       1.5947   -5.5798    2.1515   H         1 RES1   0.0000
   173 H90      -0.5695   -4.9838    2.8811   H         1 RES1   0.0000
   174 H91      -1.2057   -3.3658    2.4868   H         1 RES1   0.0000
   175 H92      -1.2847   -3.9925    0.0813   H         1 RES1   0.0000
   176 H93       0.5661   -5.6576    0.1548   H         1 RES1   0.0000
   177 H94      -0.4469   -6.7384    1.1305   H         1 RES1   0.0000
   178 H95      -1.1219   -5.8764   -1.7225   H         1 RES1   0.0000
   179 H96      -0.2816   -7.3652   -1.2816   H         1 RES1   0.0000
   180 H97      -1.9395   -7.1216   -0.7691   H         1 RES1   0.0000
   181 H98      -3.0727   -5.6696    0.2234   H         1 RES1   0.0000
   182 H99      -2.7204   -5.9687    1.9209   H         1 RES1   0.0000
   183 H100     -3.4750   -3.1788    0.9779   H         1 RES1   0.0000
   184 H101     -4.7072   -4.4243    1.0930   H         1 RES1   0.0000
   185 H102     -4.2355   -4.7606    3.4879   H         1 RES1   0.0000
   186 H103     -2.9992   -3.5008    3.4455   H         1 RES1   0.0000
   187 H104     -5.9604   -3.1100    2.8047   H         1 RES1   0.0000
   188 H105     -5.1372   -2.5825    4.2725   H         1 RES1   0.0000
   189 H106     -4.7321   -1.8459    2.7166   H         1 RES1   0.0000
   190 H107      3.0518   -2.5723    0.6494   H         1 RES1   0.0000
   191 H108      1.8794   -2.8538   -0.6993   H         1 RES1   0.0000
   192 H109      3.4954    0.5028   -0.1810   H         1 RES1   0.0000
   193 H110      3.6886   -0.9731   -1.2138   H         1 RES1   0.0000
   194 H111      3.0598    0.9852   -5.0550   H         1 RES1   0.0000
   195 H112      1.8234   -0.0780   -4.3535   H         1 RES1   0.0000
   196 H113      0.5973    2.1141   -3.7048   H         1 RES1   0.0000
   197 H114      2.8296    3.3978   -4.4825   H         1 RES1   0.0000
   198 H115      2.0959    3.2689   -6.0736   H         1 RES1   0.0000
   199 H116      0.7669    4.5753   -3.6480   H         1 RES1   0.0000
   200 H117      1.5965    5.4299   -4.9466   H         1 RES1   0.0000
   201 H118      0.1208    4.5400   -5.2885   H         1 RES1   0.0000
   202 H119      0.9773    1.2792   -6.6119   H         1 RES1   0.0000
   203 H120      0.0621    0.3485   -5.4269   H         1 RES1   0.0000
   204 H121     -0.6784    3.1037   -6.4857   H         1 RES1   0.0000
   205 H122     -1.4014    1.5624   -6.9020   H         1 RES1   0.0000
   206 H123     -2.0781    1.2532   -4.4901   H         1 RES1   0.0000
   207 H124     -1.4938    2.8911   -4.1590   H         1 RES1   0.0000
   208 H125     -3.6809    2.2019   -6.1782   H         1 RES1   0.0000
   209 H126     -3.9485    2.8480   -4.5608   H         1 RES1   0.0000
   210 H127     -3.1179    3.8260   -5.7757   H         1 RES1   0.0000
   211 H128      4.8700    0.0487   -2.6988   H         1 RES1   0.0000
   212 H129      4.7509    1.2554   -3.9591   H         1 RES1   0.0000
   213 H130      4.8484    1.8814   -0.9845   H         1 RES1   0.0000
   214 H131      6.8795    1.0116   -2.0301   H         1 RES1   0.0000
   215 H132      6.7369    2.1546   -3.3662   H         1 RES1   0.0000
   216 H133      7.1777    3.0449   -0.4861   H         1 RES1   0.0000
   217 H134      8.4747    2.7125   -1.6316   H         1 RES1   0.0000
   218 H135      7.3444    4.0131   -1.9610   H         1 RES1   0.0000
   219 H136      4.8185    3.7978   -3.3357   H         1 RES1   0.0000
   220 H137      3.3362    3.3000   -2.5111   H         1 RES1   0.0000
   221 H138      5.6250    4.8678   -1.2772   H         1 RES1   0.0000
   222 H139      4.0535    5.4696   -1.7808   H         1 RES1   0.0000
   223 H140      4.5639    3.4958    0.4886   H         1 RES1   0.0000
   224 H141      4.2371    5.2145    0.6384   H         1 RES1   0.0000
   225 H142      2.2560    3.1398   -0.4486   H         1 RES1   0.0000
   226 H143      2.1812    3.9774    1.1007   H         1 RES1   0.0000
   227 H144      1.9941    4.8894   -0.3959   H         1 RES1   0.0000
   228 N5       -1.5464   -1.6025   -1.5886   N.3       1 RES1   0.0000
   229 O7       -2.2154   -2.2672   -2.3089   O.2       1 RES1   0.0000
   230 O8       -0.3069   -1.6738   -1.5964   O.co2     1 RES1   0.0000
   231 O9       -2.0521   -0.8018   -0.7784   O.co2     1 RES1   0.0000
@<TRIPOS>BOND
     1     1    20    1
     2     1    22    1
     3     1    25    1
     4     1   133    1
     5     1   135    1
     6     1   138    1
     7     1   230    1
     8     1   231    1
     9     2     3    1
    10     2    43    1
    11     2    44    1
    12     2    45    1
    13     3     4    1
    14     3    46    1
    15     3    47    1
    16     4     5    1
    17     4    48    1
    18     4    49    1
    19     5     6    1
    20     5    50    1
    21     5    51    1
    22     6     7    1
    23     6     9    1
    24     6    52    1
    25     7     8    1
    26     7    53    1
    27     7    54    1
    28     8    55    1
    29     8    56    1
    30     8    57    1
    31     9    10    1
    32     9    58    1
    33     9    59    1
    34    10    11    1
    35    10    19    1
    36    11    12    1
    37    11    60    1
    38    11    61    1
    39    12    13    1
    40    12    15    1
    41    12    62    1
    42    13    14    1
    43    13    63    1
    44    13    64    1
    45    14    65    1
    46    14    66    1
    47    14    67    1
    48    15    16    1
    49    15    68    1
    50    15    69    1
    51    16    17    1
    52    16    70    1
    53    16    71    1
    54    17    18    1
    55    17    72    1
    56    17    73    1
    57    18    74    1
    58    18    75    1
    59    18    76    1
    60    19    20    2
    61    19    21    1
    62    21    22    1
    63    21    77    1
    64    21    78    1
    65    22    23    1
    66    23    24    1
    67    23    79    1
    68    23    80    1
    69    24    25    2
    70    24    26    1
    71    26    27    1
    72    26    35    1
    73    27    28    1
    74    27    81    1
    75    27    82    1
    76    28    29    1
    77    28    31    1
    78    28    83    1
    79    29    30    1
    80    29    84    1
    81    29    85    1
    82    30    86    1
    83    30    87    1
    84    30    88    1
    85    31    32    1
    86    31    89    1
    87    31    90    1
    88    32    33    1
    89    32    91    1
    90    32    92    1
    91    33    34    1
    92    33    93    1
    93    33    94    1
    94    34    95    1
    95    34    96    1
    96    34    97    1
    97    35    36    1
    98    35    98    1
    99    35    99    1
   100    36    37    1
   101    36    39    1
   102    36   100    1
   103    37    38    1
   104    37   101    1
   105    37   102    1
   106    38   103    1
   107    38   104    1
   108    38   105    1
   109    39    40    1
   110    39   106    1
   111    39   107    1
   112    40    41    1
   113    40   108    1
   114    40   109    1
   115    41    42    1
   116    41   110    1
   117    41   111    1
   118    42   112    1
   119    42   113    1
   120    42   114    1
   121   115   116    1
   122   115   156    1
   123   115   157    1
   124   115   158    1
   125   116   117    1
   126   116   159    1
   127   116   160    1
   128   117   118    1
   129   117   161    1
   130   117   162    1
   131   118   119    1
   132   118   163    1
   133   118   164    1
   134   119   120    1
   135   119   122    1
   136   119   165    1
   137   120   121    1
   138   120   166    1
   139   120   167    1
   140   121   168    1
   141   121   169    1
   142   121   170    1
   143   122   123    1
   144   122   171    1
   145   122   172    1
   146   123   124    1
   147   123   132    1
   148   124   125    1
   149   124   173    1
   150   124   174    1
   151   125   126    1
   152   125   128    1
   153   125   175    1
   154   126   127    1
   155   126   176    1
   156   126   177    1
   157   127   178    1
   158   127   179    1
   159   127   180    1
   160   128   129    1
   161   128   181    1
   162   128   182    1
   163   129   130    1
   164   129   183    1
   165   129   184    1
   166   130   131    1
   167   130   185    1
   168   130   186    1
   169   131   187    1
   170   131   188    1
   171   131   189    1
   172   132   133    2
   173   132   134    1
   174   134   135    1
   175   134   190    1
   176   134   191    1
   177   135   136    1
   178   136   137    1
   179   136   192    1
   180   136   193    1
   181   137   138    2
   182   137   139    1
   183   139   140    1
   184   139   148    1
   185   140   141    1
   186   140   194    1
   187   140   195    1
   188   141   142    1
   189   141   144    1
   190   141   196    1
   191   142   143    1
   192   142   197    1
   193   142   198    1
   194   143   199    1
   195   143   200    1
   196   143   201    1
   197   144   145    1
   198   144   202    1
   199   144   203    1
   200   145   146    1
   201   145   204    1
   202   145   205    1
   203   146   147    1
   204   146   206    1
   205   146   207    1
   206   147   208    1
   207   147   209    1
   208   147   210    1
   209   148   149    1
   210   148   211    1
   211   148   212    1
   212   149   150    1
   213   149   152    1
   214   149   213    1
   215   150   151    1
   216   150   214    1
   217   150   215    1
   218   151   216    1
   219   151   217    1
   220   151   218    1
   221   152   153    1
   222   152   219    1
   223   152   220    1
   224   153   154    1
   225   153   221    1
   226   153   222    1
   227   154   155    1
   228   154   223    1
   229   154   224    1
   230   155   225    1
   231   155   226    1
   232   155   227    1
   233   228   229    2
   234   228   230    1
   235   228   231    1
@<TRIPOS>SUBSTRUCTURE
     1 RES1      231 GROUP             0 ****  ****    0  
