@<TRIPOS>MOLECULE
dodecahedral_0_nunpairedes_0_charge_3 Charge: 3 Unpaired_Electrons: 3 XTB_Unpaired_Electrons: 0 XTB_Charge: 3
   281   284     1     0     0
SMALL
NoCharges
****
Generated from Architector

@<TRIPOS>ATOM
     1 Er1      -0.2170    0.1614   -0.2938   Er        1 RES1   0.0000
     2 C1        3.1264   -5.1586   -1.5192   C.3       1 RES1   0.0000
     3 C2        3.6018   -5.2363   -0.0726   C.3       1 RES1   0.0000
     4 C3        2.4393   -5.2764    0.9182   C.3       1 RES1   0.0000
     5 C4        2.9133   -5.1127    2.3630   C.3       1 RES1   0.0000
     6 C5        1.7541   -4.9655    3.3500   C.3       1 RES1   0.0000
     7 C6        2.1616   -4.5123    4.7555   C.3       1 RES1   0.0000
     8 C7        2.9733   -3.2131    4.7821   C.3       1 RES1   0.0000
     9 C8        2.9926   -2.5468    6.1637   C.3       1 RES1   0.0000
    10 C9        1.8909   -1.4904    6.3855   C.3       1 RES1   0.0000
    11 C10       2.4467   -0.0520    6.4411   C.3       1 RES1   0.0000
    12 C11       2.8773    0.5634    5.0895   C.3       1 RES1   0.0000
    13 C12       2.1122    1.7984    4.5582   C.3       1 RES1   0.0000
    14 N1        0.9403    1.4435    3.7771   N.am      1 RES1   0.0000
    15 C13      -0.2122    1.0249    4.5732   C.3       1 RES1   0.0000
    16 C14      -1.0205    2.2537    4.9872   C.3       1 RES1   0.0000
    17 C15      -2.0610    1.9598    6.0675   C.3       1 RES1   0.0000
    18 C16      -3.0930    0.8941    5.6674   C.3       1 RES1   0.0000
    19 C17      -2.7395   -0.4977    6.1943   C.3       1 RES1   0.0000
    20 C18      -3.6627   -1.5743    5.6338   C.3       1 RES1   0.0000
    21 C19      -3.3757   -2.9634    6.2021   C.3       1 RES1   0.0000
    22 C20      -1.9618   -3.4682    5.9310   C.3       1 RES1   0.0000
    23 C21       0.8321    1.4419    2.4602   C.2       1 RES1   0.0000
    24 O1       -0.1629    0.9355    1.8903   O.2       1 RES1   0.0000
    25 C22       1.8952    2.0543    1.5347   C.3       1 RES1   0.0000
    26 O2        1.3554    1.8585    0.2229   O.3       1 RES1   0.0000
    27 C23       2.0356    2.4296   -0.8953   C.3       1 RES1   0.0000
    28 C24       1.1069    2.1341   -2.1024   C.2       1 RES1   0.0000
    29 O3        0.3221    1.1684   -1.9794   O.2       1 RES1   0.0000
    30 N2        1.1571    2.8453   -3.2044   N.am      1 RES1   0.0000
    31 C25       0.2689    2.6480   -4.3685   C.3       1 RES1   0.0000
    32 C26      -0.8379    1.5852   -4.3863   C.3       1 RES1   0.0000
    33 C27      -0.3811    0.1824   -4.8093   C.3       1 RES1   0.0000
    34 C28      -1.5058   -0.6573   -5.4458   C.3       1 RES1   0.0000
    35 C29      -2.5560   -1.2638   -4.5077   C.3       1 RES1   0.0000
    36 C30      -3.7767   -1.7711   -5.2900   C.3       1 RES1   0.0000
    37 C31      -4.9893   -2.1127   -4.4218   C.3       1 RES1   0.0000
    38 C32      -4.8490   -3.3868   -3.5979   C.3       1 RES1   0.0000
    39 C33       2.0931    3.9543   -3.3700   C.3       1 RES1   0.0000
    40 C34       1.6753    5.2230   -2.6162   C.3       1 RES1   0.0000
    41 C35       0.6277    6.0750   -3.3257   C.3       1 RES1   0.0000
    42 C36       0.3378    7.3494   -2.5280   C.3       1 RES1   0.0000
    43 C37      -0.3477    7.1248   -1.1737   C.3       1 RES1   0.0000
    44 C38      -1.8767    7.1307   -1.2237   C.3       1 RES1   0.0000
    45 C39      -2.4742    5.9639   -2.0074   C.3       1 RES1   0.0000
    46 C40      -3.9924    5.8534   -1.8615   C.3       1 RES1   0.0000
    47 C41      -4.4456    5.2543   -0.5332   C.3       1 RES1   0.0000
    48 C42      -5.9625    5.0876   -0.4872   C.3       1 RES1   0.0000
    49 C43      -6.4557    4.3494    0.7569   C.3       1 RES1   0.0000
    50 C44      -6.3083    5.1620    2.0376   C.3       1 RES1   0.0000
    51 H1        3.9756   -5.1209   -2.1974   H         1 RES1   0.0000
    52 H2        2.5155   -4.2680   -1.6777   H         1 RES1   0.0000
    53 H3        2.5332   -6.0343   -1.7703   H         1 RES1   0.0000
    54 H4        4.2357   -4.3724    0.1527   H         1 RES1   0.0000
    55 H5        4.2136   -6.1287    0.0550   H         1 RES1   0.0000
    56 H6        1.9113   -6.2231    0.8135   H         1 RES1   0.0000
    57 H7        1.7265   -4.4828    0.6605   H         1 RES1   0.0000
    58 H8        3.5730   -4.2438    2.4237   H         1 RES1   0.0000
    59 H9        3.5086   -5.9808    2.6394   H         1 RES1   0.0000
    60 H10       1.2406   -5.9247    3.4194   H         1 RES1   0.0000
    61 H11       1.0280   -4.2434    2.9580   H         1 RES1   0.0000
    62 H12       2.7460   -5.2947    5.2352   H         1 RES1   0.0000
    63 H13       1.2517   -4.3805    5.3435   H         1 RES1   0.0000
    64 H14       2.5589   -2.5100    4.0550   H         1 RES1   0.0000
    65 H15       3.9990   -3.4361    4.4871   H         1 RES1   0.0000
    66 H16       3.9589   -2.0695    6.3210   H         1 RES1   0.0000
    67 H17       2.9115   -3.3309    6.9150   H         1 RES1   0.0000
    68 H18       1.4124   -1.6857    7.3466   H         1 RES1   0.0000
    69 H19       1.1118   -1.6031    5.6244   H         1 RES1   0.0000
    70 H20       3.3263   -0.0927    7.0877   H         1 RES1   0.0000
    71 H21       1.7398    0.6056    6.9480   H         1 RES1   0.0000
    72 H22       2.8449   -0.2090    4.3220   H         1 RES1   0.0000
    73 H23       3.9164    0.8734    5.1993   H         1 RES1   0.0000
    74 H24       2.7792    2.3784    3.9236   H         1 RES1   0.0000
    75 H25       1.7969    2.4358    5.3888   H         1 RES1   0.0000
    76 H26       0.1468    0.4935    5.4522   H         1 RES1   0.0000
    77 H27      -0.8250    0.3617    3.9619   H         1 RES1   0.0000
    78 H28      -1.5127    2.6606    4.1036   H         1 RES1   0.0000
    79 H29      -0.3389    3.0187    5.3650   H         1 RES1   0.0000
    80 H30      -2.5688    2.9016    6.2823   H         1 RES1   0.0000
    81 H31      -1.5506    1.6448    6.9802   H         1 RES1   0.0000
    82 H32      -3.2000    0.8697    4.5779   H         1 RES1   0.0000
    83 H33      -4.0704    1.1660    6.0655   H         1 RES1   0.0000
    84 H34      -2.8179   -0.4916    7.2816   H         1 RES1   0.0000
    85 H35      -1.7076   -0.7376    5.9375   H         1 RES1   0.0000
    86 H36      -3.5678   -1.5891    4.5432   H         1 RES1   0.0000
    87 H37      -4.6953   -1.3123    5.8645   H         1 RES1   0.0000
    88 H38      -4.0928   -3.6681    5.7798   H         1 RES1   0.0000
    89 H39      -3.5350   -2.9440    7.2792   H         1 RES1   0.0000
    90 H40      -1.8729   -4.5085    6.2301   H         1 RES1   0.0000
    91 H41      -1.7085   -3.4012    4.8719   H         1 RES1   0.0000
    92 H42      -1.2281   -2.8998    6.4952   H         1 RES1   0.0000
    93 H43       2.8669    1.5539    1.6384   H         1 RES1   0.0000
    94 H44       1.9980    3.1203    1.7719   H         1 RES1   0.0000
    95 H45       2.9973    1.9273   -1.0699   H         1 RES1   0.0000
    96 H46       2.2269    3.4953   -0.7465   H         1 RES1   0.0000
    97 H47       0.9263    2.4687   -5.2261   H         1 RES1   0.0000
    98 H48      -0.2110    3.6198   -4.5112   H         1 RES1   0.0000
    99 H49      -1.5352    1.9344   -5.1492   H         1 RES1   0.0000
   100 H50      -1.3804    1.5559   -3.4421   H         1 RES1   0.0000
   101 H51       0.0802   -0.3342   -3.9622   H         1 RES1   0.0000
   102 H52       0.3805    0.3000   -5.5841   H         1 RES1   0.0000
   103 H53      -1.0584   -1.4741   -6.0147   H         1 RES1   0.0000
   104 H54      -2.0185   -0.0183   -6.1673   H         1 RES1   0.0000
   105 H55      -2.8726   -0.5111   -3.7822   H         1 RES1   0.0000
   106 H56      -2.1203   -2.1096   -3.9635   H         1 RES1   0.0000
   107 H57      -3.4912   -2.6443   -5.8788   H         1 RES1   0.0000
   108 H58      -4.0795   -0.9926   -5.9916   H         1 RES1   0.0000
   109 H59      -5.8504   -2.2342   -5.0775   H         1 RES1   0.0000
   110 H60      -5.2005   -1.2646   -3.7682   H         1 RES1   0.0000
   111 H61      -4.6977   -4.2442   -4.2476   H         1 RES1   0.0000
   112 H62      -5.7609   -3.5650   -3.0330   H         1 RES1   0.0000
   113 H63      -4.0172   -3.3268   -2.8999   H         1 RES1   0.0000
   114 H64       2.1656    4.1816   -4.4343   H         1 RES1   0.0000
   115 H65       3.0782    3.6235   -3.0326   H         1 RES1   0.0000
   116 H66       2.5610    5.8378   -2.4577   H         1 RES1   0.0000
   117 H67       1.2813    4.9538   -1.6372   H         1 RES1   0.0000
   118 H68      -0.2864    5.5032   -3.4631   H         1 RES1   0.0000
   119 H69       0.9988    6.3603   -4.3085   H         1 RES1   0.0000
   120 H70      -0.2819    8.0244   -3.1191   H         1 RES1   0.0000
   121 H71       1.2937    7.8487   -2.3632   H         1 RES1   0.0000
   122 H72      -0.0413    7.9238   -0.4964   H         1 RES1   0.0000
   123 H73      -0.0146    6.1856   -0.7227   H         1 RES1   0.0000
   124 H74      -2.2157    8.0653   -1.6708   H         1 RES1   0.0000
   125 H75      -2.2528    7.1058   -0.1987   H         1 RES1   0.0000
   126 H76      -2.0049    5.0237   -1.6799   H         1 RES1   0.0000
   127 H77      -2.2495    6.1002   -3.0655   H         1 RES1   0.0000
   128 H78      -4.3801    5.2347   -2.6736   H         1 RES1   0.0000
   129 H79      -4.4274    6.8460   -1.9724   H         1 RES1   0.0000
   130 H80      -4.1292    5.8928    0.2901   H         1 RES1   0.0000
   131 H81      -3.9738    4.2731   -0.3956   H         1 RES1   0.0000
   132 H82      -6.2828    4.5347   -1.3729   H         1 RES1   0.0000
   133 H83      -6.4317    6.0701   -0.5311   H         1 RES1   0.0000
   134 H84      -5.9095    3.4052    0.8605   H         1 RES1   0.0000
   135 H85      -7.5104    4.1047    0.6192   H         1 RES1   0.0000
   136 H86      -5.2630    5.3542    2.2687   H         1 RES1   0.0000
   137 H87      -6.7499    4.6269    2.8747   H         1 RES1   0.0000
   138 H88      -6.8196    6.1157    1.9409   H         1 RES1   0.0000
   139 C45      -2.2033    5.5813    2.8209   C.3       1 RES1   0.0000
   140 C46      -0.8342    5.8305    3.4402   C.3       1 RES1   0.0000
   141 C47       0.2826    5.7872    2.3989   C.3       1 RES1   0.0000
   142 C48       1.6597    5.7276    3.0542   C.3       1 RES1   0.0000
   143 C49       2.7928    5.5651    2.0372   C.3       1 RES1   0.0000
   144 C50       4.0391    4.9187    2.6528   C.3       1 RES1   0.0000
   145 C51       4.8518    4.0779    1.6618   C.3       1 RES1   0.0000
   146 C52       5.5767    2.9133    2.3414   C.3       1 RES1   0.0000
   147 C53       5.9917    1.8311    1.3420   C.3       1 RES1   0.0000
   148 C54       6.3981    0.5141    2.0189   C.3       1 RES1   0.0000
   149 C55       5.2128   -0.2912    2.5858   C.3       1 RES1   0.0000
   150 C56       4.6778   -1.4673    1.7418   C.3       1 RES1   0.0000
   151 N3        3.8623   -1.0697    0.6081   N.am      1 RES1   0.0000
   152 C57       4.6088   -0.6505   -0.5753   C.3       1 RES1   0.0000
   153 C58       4.6867   -1.7610   -1.6186   C.3       1 RES1   0.0000
   154 C59       5.7186   -1.4389   -2.6957   C.3       1 RES1   0.0000
   155 C60       5.3386   -0.2243   -3.5514   C.3       1 RES1   0.0000
   156 C61       6.0086    1.0767   -3.1101   C.3       1 RES1   0.0000
   157 C62       5.6076    2.2336   -4.0208   C.3       1 RES1   0.0000
   158 C63       6.2766    3.5638   -3.6703   C.3       1 RES1   0.0000
   159 C64       5.9731    4.0761   -2.2649   C.3       1 RES1   0.0000
   160 C65       2.5427   -1.1012    0.5096   C.2       1 RES1   0.0000
   161 O4        1.9549   -0.6620   -0.5058   O.2       1 RES1   0.0000
   162 C66       1.6383   -1.6913    1.6025   C.3       1 RES1   0.0000
   163 O5        0.3291   -1.6464    1.0352   O.3       1 RES1   0.0000
   164 C67      -0.7421   -2.1190    1.8503   C.3       1 RES1   0.0000
   165 C68      -2.0266   -1.7613    1.0681   C.2       1 RES1   0.0000
   166 O6       -1.9720   -0.7359    0.3509   O.2       1 RES1   0.0000
   167 N4       -3.1000   -2.5110    1.1722   N.am      1 RES1   0.0000
   168 C69      -4.3403   -2.3022    0.4037   C.3       1 RES1   0.0000
   169 C70      -4.3956   -1.2688   -0.7247   C.3       1 RES1   0.0000
   170 C71      -4.7616    0.1441   -0.2564   C.3       1 RES1   0.0000
   171 C72      -5.4244    0.9967   -1.3442   C.3       1 RES1   0.0000
   172 C73      -4.4696    1.5263   -2.4102   C.3       1 RES1   0.0000
   173 C74      -5.2054    2.2876   -3.5123   C.3       1 RES1   0.0000
   174 C75      -4.2636    2.7414   -4.6256   C.3       1 RES1   0.0000
   175 C76      -4.9782    3.5811   -5.6782   C.3       1 RES1   0.0000
   176 C77      -3.2029   -3.5876    2.1598   C.3       1 RES1   0.0000
   177 C78      -2.5508   -4.9223    1.7780   C.3       1 RES1   0.0000
   178 C79      -3.1511   -5.6096    0.5544   C.3       1 RES1   0.0000
   179 C80      -2.3477   -6.8620    0.1860   C.3       1 RES1   0.0000
   180 C81      -0.9589   -6.5829   -0.4062   C.3       1 RES1   0.0000
   181 C82      -0.9284   -6.5499   -1.9350   C.3       1 RES1   0.0000
   182 C83      -1.7518   -5.4113   -2.5318   C.3       1 RES1   0.0000
   183 C84      -1.5823   -5.2777   -4.0458   C.3       1 RES1   0.0000
   184 C85      -0.2720   -4.6237   -4.4745   C.3       1 RES1   0.0000
   185 C86      -0.2123   -4.4438   -5.9899   C.3       1 RES1   0.0000
   186 C87       0.9762   -3.6004   -6.4507   C.3       1 RES1   0.0000
   187 C88       2.3236   -4.2673   -6.2002   C.3       1 RES1   0.0000
   188 H89      -2.9710    5.5742    3.5902   H         1 RES1   0.0000
   189 H90      -2.2237    4.6214    2.3019   H         1 RES1   0.0000
   190 H91      -2.4448    6.3640    2.1057   H         1 RES1   0.0000
   191 H92      -0.6398    5.0782    4.2087   H         1 RES1   0.0000
   192 H93      -0.8326    6.8038    3.9304   H         1 RES1   0.0000
   193 H94       0.2160    6.6688    1.7618   H         1 RES1   0.0000
   194 H95       0.1473    4.9043    1.7587   H         1 RES1   0.0000
   195 H96       1.6742    4.8856    3.7551   H         1 RES1   0.0000
   196 H97       1.8223    6.6324    3.6369   H         1 RES1   0.0000
   197 H98       3.0471    6.5341    1.6134   H         1 RES1   0.0000
   198 H99       2.4347    4.9504    1.2016   H         1 RES1   0.0000
   199 H100      3.7255    4.2793    3.4837   H         1 RES1   0.0000
   200 H101      4.6719    5.6917    3.0827   H         1 RES1   0.0000
   201 H102      5.5736    4.7084    1.1468   H         1 RES1   0.0000
   202 H103      4.1860    3.6754    0.8913   H         1 RES1   0.0000
   203 H104      4.9225    2.4762    3.1017   H         1 RES1   0.0000
   204 H105      6.4557    3.2909    2.8600   H         1 RES1   0.0000
   205 H106      6.8251    2.2143    0.7535   H         1 RES1   0.0000
   206 H107      5.1621    1.6611    0.6493   H         1 RES1   0.0000
   207 H108      7.0755    0.7623    2.8373   H         1 RES1   0.0000
   208 H109      6.9694   -0.1099    1.3303   H         1 RES1   0.0000
   209 H110      4.3875    0.3902    2.7964   H         1 RES1   0.0000
   210 H111      5.5195   -0.7199    3.5417   H         1 RES1   0.0000
   211 H112      4.0873   -2.1127    2.3901   H         1 RES1   0.0000
   212 H113      5.5194   -2.0470    1.3544   H         1 RES1   0.0000
   213 H114      5.6108   -0.3732   -0.2601   H         1 RES1   0.0000
   214 H115      4.1062    0.2189   -1.0018   H         1 RES1   0.0000
   215 H116      3.7071   -1.8895   -2.0805   H         1 RES1   0.0000
   216 H117      4.9562   -2.6986   -1.1314   H         1 RES1   0.0000
   217 H118      5.8099   -2.3186   -3.3309   H         1 RES1   0.0000
   218 H119      6.6922   -1.2706   -2.2324   H         1 RES1   0.0000
   219 H120      4.2508   -0.1013   -3.5460   H         1 RES1   0.0000
   220 H121      5.6267   -0.4082   -4.5857   H         1 RES1   0.0000
   221 H122      7.0903    0.9530   -3.1478   H         1 RES1   0.0000
   222 H123      5.7404    1.3158   -2.0808   H         1 RES1   0.0000
   223 H124      4.5187    2.3426   -3.9944   H         1 RES1   0.0000
   224 H125      5.8785    1.9785   -5.0456   H         1 RES1   0.0000
   225 H126      5.9525    4.3122   -4.3966   H         1 RES1   0.0000
   226 H127      7.3564    3.4531   -3.7739   H         1 RES1   0.0000
   227 H128      6.3759    5.0781   -2.1470   H         1 RES1   0.0000
   228 H129      4.8991    4.1218   -2.0779   H         1 RES1   0.0000
   229 H130      6.4294    3.4441   -1.5076   H         1 RES1   0.0000
   230 H131      1.6722   -1.1013    2.5301   H         1 RES1   0.0000
   231 H132      1.9355   -2.7265    1.8052   H         1 RES1   0.0000
   232 H133     -0.7497   -1.6065    2.8227   H         1 RES1   0.0000
   233 H134     -0.6425   -3.1946    2.0197   H         1 RES1   0.0000
   234 H135     -5.1237   -2.0626    1.1300   H         1 RES1   0.0000
   235 H136     -4.5728   -3.2820   -0.0183   H         1 RES1   0.0000
   236 H137     -5.1867   -1.6078   -1.3944   H         1 RES1   0.0000
   237 H138     -3.4639   -1.2630   -1.2913   H         1 RES1   0.0000
   238 H139     -3.8667    0.6469    0.1225   H         1 RES1   0.0000
   239 H140     -5.4695    0.0595    0.5704   H         1 RES1   0.0000
   240 H141     -5.9205    1.8477   -0.8765   H         1 RES1   0.0000
   241 H142     -6.2045    0.4053   -1.8262   H         1 RES1   0.0000
   242 H143     -3.9236    0.6947   -2.8570   H         1 RES1   0.0000
   243 H144     -3.7337    2.1945   -1.9527   H         1 RES1   0.0000
   244 H145     -5.7029    3.1601   -3.0867   H         1 RES1   0.0000
   245 H146     -5.9798    1.6501   -3.9397   H         1 RES1   0.0000
   246 H147     -3.8355    1.8571   -5.1030   H         1 RES1   0.0000
   247 H148     -3.4428    3.3239   -4.1924   H         1 RES1   0.0000
   248 H149     -5.7919    3.0191   -6.1300   H         1 RES1   0.0000
   249 H150     -4.2869    3.8765   -6.4644   H         1 RES1   0.0000
   250 H151     -5.3936    4.4831   -5.2355   H         1 RES1   0.0000
   251 H152     -4.2635   -3.7621    2.3372   H         1 RES1   0.0000
   252 H153     -2.7779   -3.2252    3.0978   H         1 RES1   0.0000
   253 H154     -2.6464   -5.5813    2.6422   H         1 RES1   0.0000
   254 H155     -1.4839   -4.7984    1.5992   H         1 RES1   0.0000
   255 H156     -3.1512   -4.9177   -0.2863   H         1 RES1   0.0000
   256 H157     -4.1802   -5.9004    0.7702   H         1 RES1   0.0000
   257 H158     -2.9129   -7.4555   -0.5318   H         1 RES1   0.0000
   258 H159     -2.2430   -7.4644    1.0890   H         1 RES1   0.0000
   259 H160     -0.2761   -7.3691   -0.0809   H         1 RES1   0.0000
   260 H161     -0.5621   -5.6362   -0.0293   H         1 RES1   0.0000
   261 H162     -1.3048   -7.4975   -2.3209   H         1 RES1   0.0000
   262 H163      0.1104   -6.4545   -2.2584   H         1 RES1   0.0000
   263 H164     -1.4746   -4.4685   -2.0433   H         1 RES1   0.0000
   264 H165     -2.8061   -5.5995   -2.3270   H         1 RES1   0.0000
   265 H166     -2.4088   -4.6870   -4.4450   H         1 RES1   0.0000
   266 H167     -1.6483   -6.2685   -4.4939   H         1 RES1   0.0000
   267 H168      0.5717   -5.2301   -4.1483   H         1 RES1   0.0000
   268 H169     -0.1779   -3.6393   -3.9980   H         1 RES1   0.0000
   269 H170     -1.1348   -3.9645   -6.3265   H         1 RES1   0.0000
   270 H171     -0.1650   -5.4233   -6.4645   H         1 RES1   0.0000
   271 H172      0.9528   -2.6307   -5.9416   H         1 RES1   0.0000
   272 H173      0.8733   -3.4116   -7.5207   H         1 RES1   0.0000
   273 H174      2.5263   -4.3693   -5.1358   H         1 RES1   0.0000
   274 H175      3.1213   -3.6765   -6.6432   H         1 RES1   0.0000
   275 H176      2.3468   -5.2559   -6.6501   H         1 RES1   0.0000
   276 O7       -1.6902    2.1842   -0.2728   O.3       1 RES1   0.0000
   277 H177     -2.4675    2.0853    0.3040   H         1 RES1   0.0000
   278 H178     -1.8003    3.0536   -0.6995   H         1 RES1   0.0000
   279 O8       -0.4118   -1.8171   -1.7854   O.3       1 RES1   0.0000
   280 H179     -1.0295   -1.9464   -2.5397   H         1 RES1   0.0000
   281 H180      0.4010   -2.2801   -2.0502   H         1 RES1   0.0000
@<TRIPOS>BOND
     1     1    24    1
     2     1    26    1
     3     1    29    1
     4     1   161    1
     5     1   163    1
     6     1   166    1
     7     1   276    1
     8     1   279    1
     9     2     3    1
    10     2    51    1
    11     2    52    1
    12     2    53    1
    13     3     4    1
    14     3    54    1
    15     3    55    1
    16     4     5    1
    17     4    56    1
    18     4    57    1
    19     5     6    1
    20     5    58    1
    21     5    59    1
    22     6     7    1
    23     6    60    1
    24     6    61    1
    25     7     8    1
    26     7    62    1
    27     7    63    1
    28     8     9    1
    29     8    64    1
    30     8    65    1
    31     9    10    1
    32     9    66    1
    33     9    67    1
    34    10    11    1
    35    10    68    1
    36    10    69    1
    37    11    12    1
    38    11    70    1
    39    11    71    1
    40    12    13    1
    41    12    72    1
    42    12    73    1
    43    13    14    1
    44    13    74    1
    45    13    75    1
    46    14    15    1
    47    14    23    1
    48    15    16    1
    49    15    76    1
    50    15    77    1
    51    16    17    1
    52    16    78    1
    53    16    79    1
    54    17    18    1
    55    17    80    1
    56    17    81    1
    57    18    19    1
    58    18    82    1
    59    18    83    1
    60    19    20    1
    61    19    84    1
    62    19    85    1
    63    20    21    1
    64    20    86    1
    65    20    87    1
    66    21    22    1
    67    21    88    1
    68    21    89    1
    69    22    90    1
    70    22    91    1
    71    22    92    1
    72    23    24    2
    73    23    25    1
    74    25    26    1
    75    25    93    1
    76    25    94    1
    77    26    27    1
    78    27    28    1
    79    27    95    1
    80    27    96    1
    81    28    29    2
    82    28    30    1
    83    30    31    1
    84    30    39    1
    85    31    32    1
    86    31    97    1
    87    31    98    1
    88    32    33    1
    89    32    99    1
    90    32   100    1
    91    33    34    1
    92    33   101    1
    93    33   102    1
    94    34    35    1
    95    34   103    1
    96    34   104    1
    97    35    36    1
    98    35   105    1
    99    35   106    1
   100    36    37    1
   101    36   107    1
   102    36   108    1
   103    37    38    1
   104    37   109    1
   105    37   110    1
   106    38   111    1
   107    38   112    1
   108    38   113    1
   109    39    40    1
   110    39   114    1
   111    39   115    1
   112    40    41    1
   113    40   116    1
   114    40   117    1
   115    41    42    1
   116    41   118    1
   117    41   119    1
   118    42    43    1
   119    42   120    1
   120    42   121    1
   121    43    44    1
   122    43   122    1
   123    43   123    1
   124    44    45    1
   125    44   124    1
   126    44   125    1
   127    45    46    1
   128    45   126    1
   129    45   127    1
   130    46    47    1
   131    46   128    1
   132    46   129    1
   133    47    48    1
   134    47   130    1
   135    47   131    1
   136    48    49    1
   137    48   132    1
   138    48   133    1
   139    49    50    1
   140    49   134    1
   141    49   135    1
   142    50   136    1
   143    50   137    1
   144    50   138    1
   145   139   140    1
   146   139   188    1
   147   139   189    1
   148   139   190    1
   149   140   141    1
   150   140   191    1
   151   140   192    1
   152   141   142    1
   153   141   193    1
   154   141   194    1
   155   142   143    1
   156   142   195    1
   157   142   196    1
   158   143   144    1
   159   143   197    1
   160   143   198    1
   161   144   145    1
   162   144   199    1
   163   144   200    1
   164   145   146    1
   165   145   201    1
   166   145   202    1
   167   146   147    1
   168   146   203    1
   169   146   204    1
   170   147   148    1
   171   147   205    1
   172   147   206    1
   173   148   149    1
   174   148   207    1
   175   148   208    1
   176   149   150    1
   177   149   209    1
   178   149   210    1
   179   150   151    1
   180   150   211    1
   181   150   212    1
   182   151   152    1
   183   151   160    1
   184   152   153    1
   185   152   213    1
   186   152   214    1
   187   153   154    1
   188   153   215    1
   189   153   216    1
   190   154   155    1
   191   154   217    1
   192   154   218    1
   193   155   156    1
   194   155   219    1
   195   155   220    1
   196   156   157    1
   197   156   221    1
   198   156   222    1
   199   157   158    1
   200   157   223    1
   201   157   224    1
   202   158   159    1
   203   158   225    1
   204   158   226    1
   205   159   227    1
   206   159   228    1
   207   159   229    1
   208   160   161    2
   209   160   162    1
   210   162   163    1
   211   162   230    1
   212   162   231    1
   213   163   164    1
   214   164   165    1
   215   164   232    1
   216   164   233    1
   217   165   166    2
   218   165   167    1
   219   167   168    1
   220   167   176    1
   221   168   169    1
   222   168   234    1
   223   168   235    1
   224   169   170    1
   225   169   236    1
   226   169   237    1
   227   170   171    1
   228   170   238    1
   229   170   239    1
   230   171   172    1
   231   171   240    1
   232   171   241    1
   233   172   173    1
   234   172   242    1
   235   172   243    1
   236   173   174    1
   237   173   244    1
   238   173   245    1
   239   174   175    1
   240   174   246    1
   241   174   247    1
   242   175   248    1
   243   175   249    1
   244   175   250    1
   245   176   177    1
   246   176   251    1
   247   176   252    1
   248   177   178    1
   249   177   253    1
   250   177   254    1
   251   178   179    1
   252   178   255    1
   253   178   256    1
   254   179   180    1
   255   179   257    1
   256   179   258    1
   257   180   181    1
   258   180   259    1
   259   180   260    1
   260   181   182    1
   261   181   261    1
   262   181   262    1
   263   182   183    1
   264   182   263    1
   265   182   264    1
   266   183   184    1
   267   183   265    1
   268   183   266    1
   269   184   185    1
   270   184   267    1
   271   184   268    1
   272   185   186    1
   273   185   269    1
   274   185   270    1
   275   186   187    1
   276   186   271    1
   277   186   272    1
   278   187   273    1
   279   187   274    1
   280   187   275    1
   281   276   277    1
   282   276   278    1
   283   279   280    1
   284   279   281    1
@<TRIPOS>SUBSTRUCTURE
     1 RES1      281 GROUP             0 ****  ****    0  
