@<TRIPOS>MOLECULE
ICIGOT_geomtry_0_nunpairedes_0_charge_3 Charge: 3 Unpaired_Electrons: 3 XTB_Unpaired_Electrons: 0 XTB_Charge: 3
   161   164     1     0     0
SMALL
NoCharges
****
Generated from Architector

@<TRIPOS>ATOM
     1 Er1      -0.0773   -0.3783   -0.1722   Er        1 RES1   0.0000
     2 C1       -2.4016   -6.3578   -3.4307   C.3       1 RES1   0.0000
     3 C2       -1.1169   -6.1016   -2.6509   C.3       1 RES1   0.0000
     4 C3       -1.0430   -6.8817   -1.3359   C.3       1 RES1   0.0000
     5 C4       -2.1920   -6.6079   -0.3629   C.3       1 RES1   0.0000
     6 C5       -2.3307   -5.1271   -0.0167   C.3       1 RES1   0.0000
     7 C6       -3.5102   -4.8558    0.9107   C.3       1 RES1   0.0000
     8 C7       -3.6691   -3.3663    1.2222   C.3       1 RES1   0.0000
     9 C8       -4.1768   -2.6133   -0.0094   C.3       1 RES1   0.0000
    10 N1       -4.1876   -1.1614    0.1648   N.am      1 RES1   0.0000
    11 C9       -5.3450   -0.6020    0.8542   C.3       1 RES1   0.0000
    12 C10      -6.4261   -0.0721   -0.0780   C.3       1 RES1   0.0000
    13 C11      -3.1286   -0.4802   -0.2289   C.2       1 RES1   0.0000
    14 O1       -2.0766   -1.0577   -0.6159   O.2       1 RES1   0.0000
    15 C12      -3.1419    1.0535   -0.2650   C.3       1 RES1   0.0000
    16 O2       -1.8066    1.5325   -0.4735   O.3       1 RES1   0.0000
    17 C13      -1.6112    2.3770   -1.6171   C.3       1 RES1   0.0000
    18 C14      -0.3692    1.8933   -2.3796   C.2       1 RES1   0.0000
    19 O3        0.3111    0.9982   -1.8186   O.2       1 RES1   0.0000
    20 N2       -0.0718    2.3739   -3.5719   N.am      1 RES1   0.0000
    21 C15       0.8894    1.6324   -4.4078   C.3       1 RES1   0.0000
    22 C16       2.1101    2.4059   -4.8867   C.3       1 RES1   0.0000
    23 C17      -0.7427    3.5213   -4.1794   C.3       1 RES1   0.0000
    24 C18      -0.4406    4.8700   -3.5119   C.3       1 RES1   0.0000
    25 C19       1.0419    5.2386   -3.5116   C.3       1 RES1   0.0000
    26 C20       1.3316    6.6021   -2.8736   C.3       1 RES1   0.0000
    27 C21       1.6757    6.5413   -1.3841   C.3       1 RES1   0.0000
    28 C22       0.5427    6.1190   -0.4480   C.3       1 RES1   0.0000
    29 C23      -0.6735    7.0398   -0.5249   C.3       1 RES1   0.0000
    30 C24      -1.7498    6.6359    0.4737   C.3       1 RES1   0.0000
    31 H1       -2.3848   -5.8303   -4.3824   H         1 RES1   0.0000
    32 H2       -2.5060   -7.4196   -3.6327   H         1 RES1   0.0000
    33 H3       -3.2790   -6.0312   -2.8774   H         1 RES1   0.0000
    34 H4       -0.2659   -6.4002   -3.2651   H         1 RES1   0.0000
    35 H5       -1.0090   -5.0294   -2.4517   H         1 RES1   0.0000
    36 H6       -1.0353   -7.9477   -1.5673   H         1 RES1   0.0000
    37 H7       -0.0967   -6.6453   -0.8420   H         1 RES1   0.0000
    38 H8       -3.1267   -6.9657   -0.7935   H         1 RES1   0.0000
    39 H9       -2.0162   -7.1823    0.5478   H         1 RES1   0.0000
    40 H10      -1.4066   -4.7721    0.4501   H         1 RES1   0.0000
    41 H11      -2.4750   -4.5726   -0.9431   H         1 RES1   0.0000
    42 H12      -4.4249   -5.2322    0.4527   H         1 RES1   0.0000
    43 H13      -3.3706   -5.3998    1.8434   H         1 RES1   0.0000
    44 H14      -4.3678   -3.2361    2.0502   H         1 RES1   0.0000
    45 H15      -2.6981   -2.9569    1.5229   H         1 RES1   0.0000
    46 H16      -3.5291   -2.8312   -0.8600   H         1 RES1   0.0000
    47 H17      -5.1925   -2.9281   -0.2497   H         1 RES1   0.0000
    48 H18      -5.7670   -1.4062    1.4583   H         1 RES1   0.0000
    49 H19      -5.0128    0.1811    1.5409   H         1 RES1   0.0000
    50 H20      -6.7951   -0.8568   -0.7303   H         1 RES1   0.0000
    51 H21      -7.2608    0.2804    0.5210   H         1 RES1   0.0000
    52 H22      -6.0646    0.7471   -0.6899   H         1 RES1   0.0000
    53 H23      -3.8039    1.3721   -1.0750   H         1 RES1   0.0000
    54 H24      -3.5148    1.4683    0.6759   H         1 RES1   0.0000
    55 H25      -2.4829    2.3340   -2.2768   H         1 RES1   0.0000
    56 H26      -1.4671    3.4059   -1.2672   H         1 RES1   0.0000
    57 H27       1.2108    0.7721   -3.8174   H         1 RES1   0.0000
    58 H28       0.3339    1.2789   -5.2829   H         1 RES1   0.0000
    59 H29       2.7254    2.7349   -4.0556   H         1 RES1   0.0000
    60 H30       2.7075    1.7529   -5.5184   H         1 RES1   0.0000
    61 H31       1.8440    3.2673   -5.4894   H         1 RES1   0.0000
    62 H32      -0.4177    3.5694   -5.2179   H         1 RES1   0.0000
    63 H33      -1.8248    3.3559   -4.1814   H         1 RES1   0.0000
    64 H34      -0.9877    5.6234   -4.0793   H         1 RES1   0.0000
    65 H35      -0.8311    4.8864   -2.4976   H         1 RES1   0.0000
    66 H36       1.6089    4.4735   -2.9795   H         1 RES1   0.0000
    67 H37       1.3890    5.2621   -4.5446   H         1 RES1   0.0000
    68 H38       2.1962    7.0345   -3.3794   H         1 RES1   0.0000
    69 H39       0.4915    7.2757   -3.0406   H         1 RES1   0.0000
    70 H40       2.5195    5.8586   -1.2461   H         1 RES1   0.0000
    71 H41       2.0115    7.5329   -1.0785   H         1 RES1   0.0000
    72 H42       0.2455    5.0832   -0.6530   H         1 RES1   0.0000
    73 H43       0.9272    6.1394    0.5753   H         1 RES1   0.0000
    74 H44      -0.3554    8.0617   -0.3224   H         1 RES1   0.0000
    75 H45      -1.1013    7.0235   -1.5277   H         1 RES1   0.0000
    76 H46      -1.3734    6.7024    1.4916   H         1 RES1   0.0000
    77 H47      -2.6144    7.2888    0.3889   H         1 RES1   0.0000
    78 H48      -2.0727    5.6112    0.2901   H         1 RES1   0.0000
    79 C25      -5.3667    3.2649    1.3082   C.3       1 RES1   0.0000
    80 C26      -4.0984    4.0762    1.5421   C.3       1 RES1   0.0000
    81 C27      -3.6718    4.0876    3.0099   C.3       1 RES1   0.0000
    82 C28      -2.9381    2.8140    3.4338   C.3       1 RES1   0.0000
    83 C29      -2.6310    2.8139    4.9324   C.3       1 RES1   0.0000
    84 C30      -1.8181    1.5953    5.3827   C.3       1 RES1   0.0000
    85 C31      -0.3155    1.8130    5.1868   C.3       1 RES1   0.0000
    86 C32       0.5523    0.5477    5.1924   C.3       1 RES1   0.0000
    87 N3        0.3762   -0.3969    4.0866   N.am      1 RES1   0.0000
    88 C33      -0.0469   -1.7627    4.4368   C.3       1 RES1   0.0000
    89 C34      -1.4885   -1.8863    4.9228   C.3       1 RES1   0.0000
    90 C35       0.7285   -0.1548    2.8315   C.2       1 RES1   0.0000
    91 O4        0.5582   -0.9933    1.9064   O.2       1 RES1   0.0000
    92 C36       1.3166    1.2014    2.4247   C.3       1 RES1   0.0000
    93 O5        1.5538    1.2240    1.0194   O.3       1 RES1   0.0000
    94 C37       2.9140    1.0381    0.6036   C.3       1 RES1   0.0000
    95 C38       3.0340   -0.1945   -0.2967   C.2       1 RES1   0.0000
    96 O6        1.9869   -0.8271   -0.5777   O.2       1 RES1   0.0000
    97 N4        4.1996   -0.5524   -0.7957   N.am      1 RES1   0.0000
    98 C39       4.2026   -1.6483   -1.7695   C.3       1 RES1   0.0000
    99 C40       3.8191   -3.0040   -1.1826   C.3       1 RES1   0.0000
   100 C41       5.4759    0.0645   -0.4739   C.3       1 RES1   0.0000
   101 C42       6.4397   -0.8808    0.2567   C.3       1 RES1   0.0000
   102 C43       5.8627   -1.5610    1.5053   C.3       1 RES1   0.0000
   103 C44       6.2609   -0.9398    2.8488   C.3       1 RES1   0.0000
   104 C45       5.4093    0.2506    3.3082   C.3       1 RES1   0.0000
   105 C46       5.9659    1.6099    2.8787   C.3       1 RES1   0.0000
   106 C47       5.0678    2.8052    3.2114   C.3       1 RES1   0.0000
   107 C48       4.8040    2.9652    4.7034   C.3       1 RES1   0.0000
   108 H49      -5.5845    3.1775    0.2471   H         1 RES1   0.0000
   109 H50      -6.2093    3.7590    1.7796   H         1 RES1   0.0000
   110 H51      -5.2945    2.2670    1.7351   H         1 RES1   0.0000
   111 H52      -4.2851    5.1014    1.2272   H         1 RES1   0.0000
   112 H53      -3.2741    3.6928    0.9313   H         1 RES1   0.0000
   113 H54      -4.5563    4.2168    3.6326   H         1 RES1   0.0000
   114 H55      -3.0168    4.9406    3.1848   H         1 RES1   0.0000
   115 H56      -2.0069    2.7409    2.8536   H         1 RES1   0.0000
   116 H57      -3.5703    1.9471    3.2106   H         1 RES1   0.0000
   117 H58      -3.5766    2.8280    5.4728   H         1 RES1   0.0000
   118 H59      -2.0947    3.7255    5.1957   H         1 RES1   0.0000
   119 H60      -2.1594    0.7211    4.8278   H         1 RES1   0.0000
   120 H61      -2.0158    1.4114    6.4387   H         1 RES1   0.0000
   121 H62       0.0471    2.4195    6.0171   H         1 RES1   0.0000
   122 H63      -0.1484    2.3974    4.2835   H         1 RES1   0.0000
   123 H64       0.3306   -0.0070    6.1046   H         1 RES1   0.0000
   124 H65       1.6003    0.8557    5.2367   H         1 RES1   0.0000
   125 H66       0.6183   -2.1352    5.2219   H         1 RES1   0.0000
   126 H67       0.0989   -2.3785    3.5466   H         1 RES1   0.0000
   127 H68      -1.6523   -1.3734    5.8662   H         1 RES1   0.0000
   128 H69      -1.7039   -2.9400    5.0841   H         1 RES1   0.0000
   129 H70      -2.2116   -1.5172    4.1958   H         1 RES1   0.0000
   130 H71       2.2266    1.4237    2.9915   H         1 RES1   0.0000
   131 H72       0.5935    2.0027    2.6053   H         1 RES1   0.0000
   132 H73       3.5679    0.9403    1.4710   H         1 RES1   0.0000
   133 H74       3.2013    1.9328    0.0386   H         1 RES1   0.0000
   134 H75       5.1997   -1.6966   -2.2040   H         1 RES1   0.0000
   135 H76       3.4904   -1.3768   -2.5557   H         1 RES1   0.0000
   136 H77       4.5253   -3.3107   -0.4184   H         1 RES1   0.0000
   137 H78       3.8308   -3.7441   -1.9782   H         1 RES1   0.0000
   138 H79       2.8226   -2.9802   -0.7431   H         1 RES1   0.0000
   139 H80       5.2970    0.9555    0.1229   H         1 RES1   0.0000
   140 H81       5.9475    0.3802   -1.4085   H         1 RES1   0.0000
   141 H82       7.3137   -0.2869    0.5248   H         1 RES1   0.0000
   142 H83       6.7887   -1.6435   -0.4403   H         1 RES1   0.0000
   143 H84       6.2255   -2.5902    1.5101   H         1 RES1   0.0000
   144 H85       4.7710   -1.6126    1.4385   H         1 RES1   0.0000
   145 H86       7.3108   -0.6443    2.8215   H         1 RES1   0.0000
   146 H87       6.1684   -1.7263    3.6003   H         1 RES1   0.0000
   147 H88       5.3612    0.2333    4.3978   H         1 RES1   0.0000
   148 H89       4.3816    0.1061    2.9493   H         1 RES1   0.0000
   149 H90       6.1774    1.6175    1.8077   H         1 RES1   0.0000
   150 H91       6.9203    1.7520    3.3849   H         1 RES1   0.0000
   151 H92       4.1105    2.7344    2.6798   H         1 RES1   0.0000
   152 H93       5.5665    3.7043    2.8455   H         1 RES1   0.0000
   153 H94       4.2485    2.1225    5.1104   H         1 RES1   0.0000
   154 H95       4.2328    3.8703    4.8909   H         1 RES1   0.0000
   155 H96       5.7443    3.0407    5.2394   H         1 RES1   0.0000
   156 O7       -1.8382    0.0216    1.9749   O.3       1 RES1   0.0000
   157 H97      -1.9912   -0.8084    2.4534   H         1 RES1   0.0000
   158 H98      -1.9771    0.7392    2.6181   H         1 RES1   0.0000
   159 O8        0.0609   -1.8135   -2.3079   O.3       1 RES1   0.0000
   160 H99       0.8680   -2.2419   -2.6279   H         1 RES1   0.0000
   161 H100     -0.6579   -2.1381   -2.8683   H         1 RES1   0.0000
@<TRIPOS>BOND
     1     1    14    1
     2     1    16    1
     3     1    19    1
     4     1    91    1
     5     1    93    1
     6     1    96    1
     7     1   156    1
     8     1   159    1
     9     2     3    1
    10     2    31    1
    11     2    32    1
    12     2    33    1
    13     3     4    1
    14     3    34    1
    15     3    35    1
    16     4     5    1
    17     4    36    1
    18     4    37    1
    19     5     6    1
    20     5    38    1
    21     5    39    1
    22     6     7    1
    23     6    40    1
    24     6    41    1
    25     7     8    1
    26     7    42    1
    27     7    43    1
    28     8     9    1
    29     8    44    1
    30     8    45    1
    31     9    10    1
    32     9    46    1
    33     9    47    1
    34    10    11    1
    35    10    13    1
    36    11    12    1
    37    11    48    1
    38    11    49    1
    39    12    50    1
    40    12    51    1
    41    12    52    1
    42    13    14    2
    43    13    15    1
    44    15    16    1
    45    15    53    1
    46    15    54    1
    47    16    17    1
    48    17    18    1
    49    17    55    1
    50    17    56    1
    51    18    19    2
    52    18    20    1
    53    20    21    1
    54    20    23    1
    55    21    22    1
    56    21    57    1
    57    21    58    1
    58    22    59    1
    59    22    60    1
    60    22    61    1
    61    23    24    1
    62    23    62    1
    63    23    63    1
    64    24    25    1
    65    24    64    1
    66    24    65    1
    67    25    26    1
    68    25    66    1
    69    25    67    1
    70    26    27    1
    71    26    68    1
    72    26    69    1
    73    27    28    1
    74    27    70    1
    75    27    71    1
    76    28    29    1
    77    28    72    1
    78    28    73    1
    79    29    30    1
    80    29    74    1
    81    29    75    1
    82    30    76    1
    83    30    77    1
    84    30    78    1
    85    79    80    1
    86    79   108    1
    87    79   109    1
    88    79   110    1
    89    80    81    1
    90    80   111    1
    91    80   112    1
    92    81    82    1
    93    81   113    1
    94    81   114    1
    95    82    83    1
    96    82   115    1
    97    82   116    1
    98    83    84    1
    99    83   117    1
   100    83   118    1
   101    84    85    1
   102    84   119    1
   103    84   120    1
   104    85    86    1
   105    85   121    1
   106    85   122    1
   107    86    87    1
   108    86   123    1
   109    86   124    1
   110    87    88    1
   111    87    90    1
   112    88    89    1
   113    88   125    1
   114    88   126    1
   115    89   127    1
   116    89   128    1
   117    89   129    1
   118    90    91    2
   119    90    92    1
   120    92    93    1
   121    92   130    1
   122    92   131    1
   123    93    94    1
   124    94    95    1
   125    94   132    1
   126    94   133    1
   127    95    96    2
   128    95    97    1
   129    97    98    1
   130    97   100    1
   131    98    99    1
   132    98   134    1
   133    98   135    1
   134    99   136    1
   135    99   137    1
   136    99   138    1
   137   100   101    1
   138   100   139    1
   139   100   140    1
   140   101   102    1
   141   101   141    1
   142   101   142    1
   143   102   103    1
   144   102   143    1
   145   102   144    1
   146   103   104    1
   147   103   145    1
   148   103   146    1
   149   104   105    1
   150   104   147    1
   151   104   148    1
   152   105   106    1
   153   105   149    1
   154   105   150    1
   155   106   107    1
   156   106   151    1
   157   106   152    1
   158   107   153    1
   159   107   154    1
   160   107   155    1
   161   156   157    1
   162   156   158    1
   163   159   160    1
   164   159   161    1
@<TRIPOS>SUBSTRUCTURE
     1 RES1      161 GROUP             0 ****  ****    0  
