@<TRIPOS>MOLECULE
ICIGOT_geomtry_0_nunpairedes_0_charge_3 Charge: 3 Unpaired_Electrons: 3 XTB_Unpaired_Electrons: 0 XTB_Charge: 3
   305   308     1     0     0
SMALL
NoCharges
****
Generated from Architector

@<TRIPOS>ATOM
     1 Er1      -0.1054    0.0911   -0.1603   Er        1 RES1   0.0000
     2 C1        3.3222    1.5738    3.5834   C.3       1 RES1   0.0000
     3 C2        2.0304    1.1817    2.8647   C.3       1 RES1   0.0000
     4 C3        0.6865    1.5181    3.5352   C.3       1 RES1   0.0000
     5 C4       -0.4055    1.9855    2.5518   C.3       1 RES1   0.0000
     6 C5       -0.5192    3.5156    2.4668   C.3       1 RES1   0.0000
     7 C6       -1.0224    4.0615    1.1277   C.3       1 RES1   0.0000
     8 C7       -2.4755    3.7226    0.8061   C.3       1 RES1   0.0000
     9 C8       -2.8878    4.1329   -0.6059   C.3       1 RES1   0.0000
    10 N1       -2.2042    3.5330   -1.7622   N.am      1 RES1   0.0000
    11 C9       -2.3198    4.3756   -2.9463   C.3       1 RES1   0.0000
    12 C10      -1.3458    5.5572   -2.9194   C.3       1 RES1   0.0000
    13 C11       0.1212    5.1347   -2.9611   C.3       1 RES1   0.0000
    14 C12       0.6342    4.6398   -4.3249   C.3       1 RES1   0.0000
    15 C13       0.6181    5.8063   -5.3195   C.3       1 RES1   0.0000
    16 C14       1.0548    5.4984   -6.7532   C.3       1 RES1   0.0000
    17 C15       0.2591    4.4044   -7.4716   C.3       1 RES1   0.0000
    18 C16      -1.2303    4.7071   -7.5849   C.3       1 RES1   0.0000
    19 C17       2.0272    4.0219   -4.1150   C.3       1 RES1   0.0000
    20 C18       2.4083    2.8962   -5.0785   C.3       1 RES1   0.0000
    21 C19       3.6731    2.1735   -4.6037   C.3       1 RES1   0.0000
    22 C20       4.2176    1.1361   -5.5947   C.3       1 RES1   0.0000
    23 C21       3.6430   -0.2711   -5.4264   C.3       1 RES1   0.0000
    24 C22       2.1568   -0.4010   -5.7425   C.3       1 RES1   0.0000
    25 C23      -1.6745    2.3262   -1.7541   C.2       1 RES1   0.0000
    26 O1       -1.5657    1.6237   -0.7220   O.2       1 RES1   0.0000
    27 C24      -1.1353    1.7078   -3.0538   C.3       1 RES1   0.0000
    28 O2       -0.6445    0.3858   -2.8078   O.3       1 RES1   0.0000
    29 C25      -1.3961   -0.6739   -3.4016   C.3       1 RES1   0.0000
    30 C26      -2.2849   -1.3369   -2.3478   C.2       1 RES1   0.0000
    31 O3       -1.9800   -1.1220   -1.1455   O.2       1 RES1   0.0000
    32 N2       -3.3047   -2.1043   -2.6858   N.am      1 RES1   0.0000
    33 C27      -3.4926   -2.6505   -4.0217   C.3       1 RES1   0.0000
    34 C28      -2.5530   -3.8419   -4.2902   C.3       1 RES1   0.0000
    35 C29      -3.0640   -5.1672   -3.7217   C.3       1 RES1   0.0000
    36 C30      -2.0724   -6.3020   -3.9800   C.3       1 RES1   0.0000
    37 C31      -2.6999   -7.6844   -3.8070   C.3       1 RES1   0.0000
    38 C32      -3.2281   -7.9949   -2.4068   C.3       1 RES1   0.0000
    39 C33      -2.1402   -8.1296   -1.3445   C.3       1 RES1   0.0000
    40 C34      -2.7265   -8.5735   -0.0095   C.3       1 RES1   0.0000
    41 C35      -4.1202   -2.6401   -1.5889   C.3       1 RES1   0.0000
    42 C36      -5.6104   -2.8525   -1.8593   C.3       1 RES1   0.0000
    43 C37      -6.3440   -3.0057   -0.5124   C.3       1 RES1   0.0000
    44 C38      -6.9543   -1.7395    0.1309   C.3       1 RES1   0.0000
    45 C39      -8.4393   -1.5626   -0.2273   C.3       1 RES1   0.0000
    46 C40      -8.7859   -1.1557   -1.6680   C.3       1 RES1   0.0000
    47 C41      -9.1112   -2.3371   -2.5862   C.3       1 RES1   0.0000
    48 C42      -9.6577   -1.8689   -3.9309   C.3       1 RES1   0.0000
    49 C43      -6.1031   -0.4808   -0.0985   C.3       1 RES1   0.0000
    50 C44      -6.7697    0.8241    0.3372   C.3       1 RES1   0.0000
    51 C45      -5.9479    2.0607   -0.0435   C.3       1 RES1   0.0000
    52 C46      -6.2556    2.5874   -1.4503   C.3       1 RES1   0.0000
    53 C47      -5.5967    1.8166   -2.5945   C.3       1 RES1   0.0000
    54 C48      -5.6970    2.5907   -3.9034   C.3       1 RES1   0.0000
    55 H1        4.1745    1.2933    2.9637   H         1 RES1   0.0000
    56 H2        3.4437    1.0496    4.5238   H         1 RES1   0.0000
    57 H3        3.3852    2.6389    3.7827   H         1 RES1   0.0000
    58 H4        2.0839    0.1088    2.7268   H         1 RES1   0.0000
    59 H5        2.0285    1.6380    1.8763   H         1 RES1   0.0000
    60 H6        0.8359    2.2918    4.2855   H         1 RES1   0.0000
    61 H7        0.3217    0.6418    4.0704   H         1 RES1   0.0000
    62 H8       -1.3635    1.5721    2.8701   H         1 RES1   0.0000
    63 H9       -0.1981    1.5719    1.5359   H         1 RES1   0.0000
    64 H10       0.4668    3.9457    2.6421   H         1 RES1   0.0000
    65 H11      -1.1715    3.8738    3.2663   H         1 RES1   0.0000
    66 H12      -0.4001    3.6698    0.3173   H         1 RES1   0.0000
    67 H13      -0.9137    5.1471    1.1487   H         1 RES1   0.0000
    68 H14      -3.1381    4.2799    1.4689   H         1 RES1   0.0000
    69 H15      -2.6512    2.6612    0.9671   H         1 RES1   0.0000
    70 H16      -2.7573    5.2126   -0.6947   H         1 RES1   0.0000
    71 H17      -3.9522    3.9157   -0.7268   H         1 RES1   0.0000
    72 H18      -3.3429    4.7574   -2.9685   H         1 RES1   0.0000
    73 H19      -2.1566    3.7999   -3.8539   H         1 RES1   0.0000
    74 H20      -1.5090    6.1543   -2.0213   H         1 RES1   0.0000
    75 H21      -1.5887    6.1944   -3.7684   H         1 RES1   0.0000
    76 H22       0.2629    4.3541   -2.2049   H         1 RES1   0.0000
    77 H23       0.7265    5.9926   -2.6637   H         1 RES1   0.0000
    78 H24      -0.0408    3.8639   -4.7020   H         1 RES1   0.0000
    79 H25       1.2564    6.6045   -4.9356   H         1 RES1   0.0000
    80 H26      -0.3946    6.2059   -5.3675   H         1 RES1   0.0000
    81 H27       2.1149    5.2402   -6.7741   H         1 RES1   0.0000
    82 H28       0.9449    6.4235   -7.3228   H         1 RES1   0.0000
    83 H29       0.3992    3.4414   -6.9757   H         1 RES1   0.0000
    84 H30       0.6655    4.3105   -8.4802   H         1 RES1   0.0000
    85 H31      -1.7121    4.7384   -6.6096   H         1 RES1   0.0000
    86 H32      -1.7268    3.9433   -8.1784   H         1 RES1   0.0000
    87 H33      -1.3825    5.6646   -8.0740   H         1 RES1   0.0000
    88 H34       2.0630    3.6001   -3.1012   H         1 RES1   0.0000
    89 H35       2.7787    4.8121   -4.1629   H         1 RES1   0.0000
    90 H36       2.5958    3.2856   -6.0768   H         1 RES1   0.0000
    91 H37       1.5774    2.1923   -5.1504   H         1 RES1   0.0000
    92 H38       3.4810    1.6821   -3.6401   H         1 RES1   0.0000
    93 H39       4.4442    2.9329   -4.4435   H         1 RES1   0.0000
    94 H40       5.2980    1.0641   -5.4505   H         1 RES1   0.0000
    95 H41       4.0503    1.4880   -6.6136   H         1 RES1   0.0000
    96 H42       3.8204   -0.6070   -4.4009   H         1 RES1   0.0000
    97 H43       4.1942   -0.9374   -6.0892   H         1 RES1   0.0000
    98 H44       1.5477    0.0652   -4.9691   H         1 RES1   0.0000
    99 H45       1.8804   -1.4522   -5.8051   H         1 RES1   0.0000
   100 H46       1.9274    0.0631   -6.6977   H         1 RES1   0.0000
   101 H47      -0.2836    2.2926   -3.4215   H         1 RES1   0.0000
   102 H48      -1.9106    1.6903   -3.8252   H         1 RES1   0.0000
   103 H49      -0.6642   -1.4117   -3.7505   H         1 RES1   0.0000
   104 H50      -1.9613   -0.3144   -4.2664   H         1 RES1   0.0000
   105 H51      -3.3259   -1.8695   -4.7670   H         1 RES1   0.0000
   106 H52      -4.5299   -2.9801   -4.1017   H         1 RES1   0.0000
   107 H53      -1.5564   -3.6324   -3.8875   H         1 RES1   0.0000
   108 H54      -2.4503   -3.9477   -5.3711   H         1 RES1   0.0000
   109 H55      -4.0171   -5.4108   -4.1935   H         1 RES1   0.0000
   110 H56      -3.2343   -5.0776   -2.6482   H         1 RES1   0.0000
   111 H57      -1.2152   -6.1921   -3.3134   H         1 RES1   0.0000
   112 H58      -1.7069   -6.2211   -5.0054   H         1 RES1   0.0000
   113 H59      -1.9558   -8.4338   -4.0763   H         1 RES1   0.0000
   114 H60      -3.5248   -7.7762   -4.5144   H         1 RES1   0.0000
   115 H61      -3.7724   -8.9388   -2.4578   H         1 RES1   0.0000
   116 H62      -3.9471   -7.2330   -2.0982   H         1 RES1   0.0000
   117 H63      -1.6172   -7.1784   -1.2172   H         1 RES1   0.0000
   118 H64      -1.4084   -8.8674   -1.6741   H         1 RES1   0.0000
   119 H65      -3.4902   -7.8773    0.3334   H         1 RES1   0.0000
   120 H66      -1.9550   -8.6451    0.7537   H         1 RES1   0.0000
   121 H67      -3.1903   -9.5503   -0.1109   H         1 RES1   0.0000
   122 H68      -4.0217   -1.9217   -0.7752   H         1 RES1   0.0000
   123 H69      -3.6925   -3.5930   -1.2634   H         1 RES1   0.0000
   124 H70      -5.7576   -3.7729   -2.4262   H         1 RES1   0.0000
   125 H71      -6.0223   -2.0250   -2.4337   H         1 RES1   0.0000
   126 H72      -5.6501   -3.4589    0.1987   H         1 RES1   0.0000
   127 H73      -7.1521   -3.7232   -0.6415   H         1 RES1   0.0000
   128 H74      -6.9592   -1.9199    1.2115   H         1 RES1   0.0000
   129 H75      -8.8490   -0.8199    0.4592   H         1 RES1   0.0000
   130 H76      -8.9487   -2.5005    0.0060   H         1 RES1   0.0000
   131 H77      -7.9795   -0.5618   -2.1061   H         1 RES1   0.0000
   132 H78      -9.6703   -0.5131   -1.6345   H         1 RES1   0.0000
   133 H79      -9.8605   -2.9648   -2.0991   H         1 RES1   0.0000
   134 H80      -8.2229   -2.9513   -2.7513   H         1 RES1   0.0000
   135 H81     -10.5876   -1.3230   -3.7935   H         1 RES1   0.0000
   136 H82      -9.8593   -2.7218   -4.5729   H         1 RES1   0.0000
   137 H83      -8.9478   -1.2152   -4.4357   H         1 RES1   0.0000
   138 H84      -5.8399   -0.3918   -1.1485   H         1 RES1   0.0000
   139 H85      -5.1649   -0.5927    0.4632   H         1 RES1   0.0000
   140 H86      -6.9202    0.8020    1.4178   H         1 RES1   0.0000
   141 H87      -7.7482    0.9154   -0.1300   H         1 RES1   0.0000
   142 H88      -4.8783    1.8379    0.0541   H         1 RES1   0.0000
   143 H89      -6.1841    2.8573    0.6648   H         1 RES1   0.0000
   144 H90      -5.9359    3.6315   -1.5139   H         1 RES1   0.0000
   145 H91      -7.3361    2.5887   -1.5971   H         1 RES1   0.0000
   146 H92      -6.0926    0.8567   -2.7345   H         1 RES1   0.0000
   147 H93      -4.5459    1.6184   -2.3483   H         1 RES1   0.0000
   148 H94      -6.7410    2.7743   -4.1426   H         1 RES1   0.0000
   149 H95      -5.2575    2.0347   -4.7292   H         1 RES1   0.0000
   150 H96      -5.1961    3.5539   -3.8302   H         1 RES1   0.0000
   151 C49      -1.6471   -5.0679    0.9929   C.3       1 RES1   0.0000
   152 C50      -2.0071   -3.6159    1.2897   C.3       1 RES1   0.0000
   153 C51      -3.2041   -3.5305    2.2571   C.3       1 RES1   0.0000
   154 C52      -2.8854   -2.9410    3.6332   C.3       1 RES1   0.0000
   155 C53      -1.9529   -3.7915    4.5016   C.3       1 RES1   0.0000
   156 C54      -0.4571   -3.7157    4.1706   C.3       1 RES1   0.0000
   157 C55       0.0599   -2.2783    4.1402   C.3       1 RES1   0.0000
   158 C56       1.5784   -2.1488    4.0725   C.3       1 RES1   0.0000
   159 N3        2.2631   -2.3494    2.7769   N.am      1 RES1   0.0000
   160 C57       3.4322   -3.2142    2.8892   C.3       1 RES1   0.0000
   161 C58       2.9874   -4.6654    3.1150   C.3       1 RES1   0.0000
   162 C59       2.1655   -5.2212    1.9550   C.3       1 RES1   0.0000
   163 C60       3.0042   -5.6200    0.7341   C.3       1 RES1   0.0000
   164 C61       3.7866   -6.9071    1.0372   C.3       1 RES1   0.0000
   165 C62       5.1290   -7.0807    0.3176   C.3       1 RES1   0.0000
   166 C63       6.1669   -5.9712    0.5146   C.3       1 RES1   0.0000
   167 C64       6.6186   -5.7860    1.9583   C.3       1 RES1   0.0000
   168 C65       2.0786   -5.7461   -0.4840   C.3       1 RES1   0.0000
   169 C66       2.8349   -5.8304   -1.8108   C.3       1 RES1   0.0000
   170 C67       2.0130   -5.3150   -2.9931   C.3       1 RES1   0.0000
   171 C68       2.8188   -5.1960   -4.2924   C.3       1 RES1   0.0000
   172 C69       3.4991   -3.8375   -4.4799   C.3       1 RES1   0.0000
   173 C70       4.5919   -3.5046   -3.4693   C.3       1 RES1   0.0000
   174 C71       1.9410   -1.7135    1.6618   C.2       1 RES1   0.0000
   175 O4        0.8029   -1.2310    1.4270   O.2       1 RES1   0.0000
   176 C72       3.0343   -1.4632    0.5909   C.3       1 RES1   0.0000
   177 O5        2.6020   -0.3707   -0.2306   O.3       1 RES1   0.0000
   178 C73       3.5119    0.7247   -0.3950   C.3       1 RES1   0.0000
   179 C74       2.7018    2.0311   -0.2652   C.2       1 RES1   0.0000
   180 O6        1.4471    1.9243   -0.3649   O.2       1 RES1   0.0000
   181 N4        3.3180    3.1665    0.0194   N.am      1 RES1   0.0000
   182 C75       4.7423    3.3995   -0.1888   C.3       1 RES1   0.0000
   183 C76       5.0121    4.2570   -1.4413   C.3       1 RES1   0.0000
   184 C77       4.9847    5.7784   -1.2531   C.3       1 RES1   0.0000
   185 C78       5.1935    6.4962   -2.5868   C.3       1 RES1   0.0000
   186 C79       5.2416    8.0199   -2.4574   C.3       1 RES1   0.0000
   187 C80       3.9655    8.6728   -1.9240   C.3       1 RES1   0.0000
   188 C81       2.7379    8.4608   -2.8060   C.3       1 RES1   0.0000
   189 C82       1.5058    9.1379   -2.2180   C.3       1 RES1   0.0000
   190 C83       2.5531    4.3250    0.4982   C.3       1 RES1   0.0000
   191 C84       3.1340    4.9523    1.7804   C.3       1 RES1   0.0000
   192 C85       2.2202    6.0864    2.2972   C.3       1 RES1   0.0000
   193 C86       1.9094    6.2709    3.8209   C.3       1 RES1   0.0000
   194 C87       2.5588    7.5354    4.4327   C.3       1 RES1   0.0000
   195 C88       3.9244    7.4114    5.1101   C.3       1 RES1   0.0000
   196 C89       5.0718    7.0452    4.1743   C.3       1 RES1   0.0000
   197 C90       6.3368    6.7580    4.9724   C.3       1 RES1   0.0000
   198 C91       2.0994    5.0278    4.7104   C.3       1 RES1   0.0000
   199 C92       1.3494    5.1407    6.0523   C.3       1 RES1   0.0000
   200 C93       0.6744    3.8652    6.5929   C.3       1 RES1   0.0000
   201 C94       1.4828    2.9385    7.5106   C.3       1 RES1   0.0000
   202 C95       2.4856    2.0167    6.8240   C.3       1 RES1   0.0000
   203 C96       3.0860    1.0217    7.8095   C.3       1 RES1   0.0000
   204 H97      -0.7713   -5.1524    0.3519   H         1 RES1   0.0000
   205 H98      -2.4798   -5.5609    0.4979   H         1 RES1   0.0000
   206 H99      -1.4466   -5.6142    1.9100   H         1 RES1   0.0000
   207 H100     -2.2533   -3.1230    0.3448   H         1 RES1   0.0000
   208 H101     -1.1523   -3.0851    1.7112   H         1 RES1   0.0000
   209 H102     -3.6146   -4.5298    2.4105   H         1 RES1   0.0000
   210 H103     -4.0033   -2.9340    1.8077   H         1 RES1   0.0000
   211 H104     -3.8311   -2.8429    4.1723   H         1 RES1   0.0000
   212 H105     -2.4733   -1.9359    3.5251   H         1 RES1   0.0000
   213 H106     -2.2674   -4.8346    4.4436   H         1 RES1   0.0000
   214 H107     -2.0851   -3.4711    5.5368   H         1 RES1   0.0000
   215 H108     -0.2441   -4.2127    3.2272   H         1 RES1   0.0000
   216 H109      0.0682   -4.2718    4.9493   H         1 RES1   0.0000
   217 H110     -0.2441   -1.7944    5.0706   H         1 RES1   0.0000
   218 H111     -0.3788   -1.7261    3.3105   H         1 RES1   0.0000
   219 H112      2.0197   -2.8539    4.7768   H         1 RES1   0.0000
   220 H113      1.8587   -1.1438    4.4043   H         1 RES1   0.0000
   221 H114      4.0410   -2.8716    3.7310   H         1 RES1   0.0000
   222 H115      4.0378   -3.1614    1.9877   H         1 RES1   0.0000
   223 H116      2.4029   -4.7366    4.0302   H         1 RES1   0.0000
   224 H117      3.8831   -5.2647    3.2657   H         1 RES1   0.0000
   225 H118      1.4232   -4.4721    1.6647   H         1 RES1   0.0000
   226 H119      1.6215   -6.0990    2.3009   H         1 RES1   0.0000
   227 H120      3.7160   -4.8132    0.5259   H         1 RES1   0.0000
   228 H121      3.1614   -7.7673    0.7891   H         1 RES1   0.0000
   229 H122      3.9728   -6.9609    2.1098   H         1 RES1   0.0000
   230 H123      4.9634   -7.2066   -0.7524   H         1 RES1   0.0000
   231 H124      5.5596   -8.0136    0.6851   H         1 RES1   0.0000
   232 H125      5.7932   -5.0206    0.1203   H         1 RES1   0.0000
   233 H126      7.0416   -6.2376   -0.0807   H         1 RES1   0.0000
   234 H127      5.8293   -5.3682    2.5784   H         1 RES1   0.0000
   235 H128      7.4695   -5.1101    1.9998   H         1 RES1   0.0000
   236 H129      6.9233   -6.7386    2.3822   H         1 RES1   0.0000
   237 H130      1.4315   -4.8546   -0.5101   H         1 RES1   0.0000
   238 H131      1.4232   -6.6100   -0.3592   H         1 RES1   0.0000
   239 H132      3.1209   -6.8619   -2.0125   H         1 RES1   0.0000
   240 H133      3.7517   -5.2515   -1.7234   H         1 RES1   0.0000
   241 H134      1.5941   -4.3228   -2.7605   H         1 RES1   0.0000
   242 H135      1.1722   -5.9942   -3.1529   H         1 RES1   0.0000
   243 H136      2.1402   -5.3359   -5.1362   H         1 RES1   0.0000
   244 H137      3.5614   -5.9924   -4.3379   H         1 RES1   0.0000
   245 H138      2.7372   -3.0534   -4.4439   H         1 RES1   0.0000
   246 H139      3.9431   -3.8148   -5.4755   H         1 RES1   0.0000
   247 H140      4.1784   -3.3210   -2.4777   H         1 RES1   0.0000
   248 H141      5.1235   -2.6069   -3.7788   H         1 RES1   0.0000
   249 H142      5.3130   -4.3141   -3.4005   H         1 RES1   0.0000
   250 H143      3.1622   -2.3515   -0.0393   H         1 RES1   0.0000
   251 H144      3.9891   -1.2356    1.0734   H         1 RES1   0.0000
   252 H145      3.9774    0.6571   -1.3866   H         1 RES1   0.0000
   253 H146      4.2928    0.7037    0.3727   H         1 RES1   0.0000
   254 H147      5.2683    2.4522   -0.3004   H         1 RES1   0.0000
   255 H148      5.1302    3.8973    0.6968   H         1 RES1   0.0000
   256 H149      4.3021    3.9699   -2.2218   H         1 RES1   0.0000
   257 H150      6.0110    4.0035   -1.8016   H         1 RES1   0.0000
   258 H151      5.7803    6.0692   -0.5676   H         1 RES1   0.0000
   259 H152      4.0422    6.1159   -0.8308   H         1 RES1   0.0000
   260 H153      4.3966    6.2169   -3.2771   H         1 RES1   0.0000
   261 H154      6.1343    6.1619   -3.0262   H         1 RES1   0.0000
   262 H155      5.4626    8.4386   -3.4400   H         1 RES1   0.0000
   263 H156      6.0638    8.2898   -1.7948   H         1 RES1   0.0000
   264 H157      4.1438    9.7453   -1.8429   H         1 RES1   0.0000
   265 H158      3.7496    8.3176   -0.9143   H         1 RES1   0.0000
   266 H159      2.5386    7.3923   -2.9214   H         1 RES1   0.0000
   267 H160      2.9329    8.8678   -3.7982   H         1 RES1   0.0000
   268 H161      1.2763    8.7335   -1.2335   H         1 RES1   0.0000
   269 H162      0.6374    9.0042   -2.8592   H         1 RES1   0.0000
   270 H163      1.6787   10.2036   -2.1076   H         1 RES1   0.0000
   271 H164      1.5482    3.9723    0.7081   H         1 RES1   0.0000
   272 H165      2.4941    5.0750   -0.2914   H         1 RES1   0.0000
   273 H166      4.1181    5.3682    1.5761   H         1 RES1   0.0000
   274 H167      3.2556    4.1722    2.5249   H         1 RES1   0.0000
   275 H168      1.2677    5.9690    1.7765   H         1 RES1   0.0000
   276 H169      2.6433    7.0282    1.9544   H         1 RES1   0.0000
   277 H170      0.8349    6.4905    3.8354   H         1 RES1   0.0000
   278 H171      1.8757    7.9134    5.1952   H         1 RES1   0.0000
   279 H172      2.6199    8.3125    3.6670   H         1 RES1   0.0000
   280 H173      3.8805    6.6969    5.9342   H         1 RES1   0.0000
   281 H174      4.1502    8.3793    5.5619   H         1 RES1   0.0000
   282 H175      5.2463    7.8723    3.4838   H         1 RES1   0.0000
   283 H176      4.8135    6.1641    3.5834   H         1 RES1   0.0000
   284 H177      6.5911    7.6112    5.5964   H         1 RES1   0.0000
   285 H178      7.1805    6.5465    4.3189   H         1 RES1   0.0000
   286 H179      6.1806    5.8994    5.6247   H         1 RES1   0.0000
   287 H180      3.1608    4.8531    4.8829   H         1 RES1   0.0000
   288 H181      1.6989    4.1707    4.1715   H         1 RES1   0.0000
   289 H182      0.5467    5.8663    5.9142   H         1 RES1   0.0000
   290 H183      2.0042    5.5404    6.8267   H         1 RES1   0.0000
   291 H184      0.2532    3.2807    5.7708   H         1 RES1   0.0000
   292 H185     -0.1740    4.1969    7.1918   H         1 RES1   0.0000
   293 H186      0.7658    2.2957    8.0292   H         1 RES1   0.0000
   294 H187      1.9894    3.5323    8.2716   H         1 RES1   0.0000
   295 H188      3.2763    2.6017    6.3548   H         1 RES1   0.0000
   296 H189      1.9619    1.4579    6.0463   H         1 RES1   0.0000
   297 H190      3.6265    1.5338    8.5978   H         1 RES1   0.0000
   298 H191      3.7689    0.3319    7.3178   H         1 RES1   0.0000
   299 H192      2.2949    0.4394    8.2733   H         1 RES1   0.0000
   300 O7       -2.0341   -0.3705    1.3882   O.3       1 RES1   0.0000
   301 H193     -2.7727   -0.0429    1.9260   H         1 RES1   0.0000
   302 H194     -2.4450   -1.0094    0.7829   H         1 RES1   0.0000
   303 O8        0.4839   -2.1742   -1.1812   O.3       1 RES1   0.0000
   304 H195     -0.1448   -2.8098   -0.8078   H         1 RES1   0.0000
   305 H196      1.1944   -2.7122   -1.5701   H         1 RES1   0.0000
@<TRIPOS>BOND
     1     1    26    1
     2     1    28    1
     3     1    31    1
     4     1   175    1
     5     1   177    1
     6     1   180    1
     7     1   300    1
     8     1   303    1
     9     2     3    1
    10     2    55    1
    11     2    56    1
    12     2    57    1
    13     3     4    1
    14     3    58    1
    15     3    59    1
    16     4     5    1
    17     4    60    1
    18     4    61    1
    19     5     6    1
    20     5    62    1
    21     5    63    1
    22     6     7    1
    23     6    64    1
    24     6    65    1
    25     7     8    1
    26     7    66    1
    27     7    67    1
    28     8     9    1
    29     8    68    1
    30     8    69    1
    31     9    10    1
    32     9    70    1
    33     9    71    1
    34    10    11    1
    35    10    25    1
    36    11    12    1
    37    11    72    1
    38    11    73    1
    39    12    13    1
    40    12    74    1
    41    12    75    1
    42    13    14    1
    43    13    76    1
    44    13    77    1
    45    14    15    1
    46    14    19    1
    47    14    78    1
    48    15    16    1
    49    15    79    1
    50    15    80    1
    51    16    17    1
    52    16    81    1
    53    16    82    1
    54    17    18    1
    55    17    83    1
    56    17    84    1
    57    18    85    1
    58    18    86    1
    59    18    87    1
    60    19    20    1
    61    19    88    1
    62    19    89    1
    63    20    21    1
    64    20    90    1
    65    20    91    1
    66    21    22    1
    67    21    92    1
    68    21    93    1
    69    22    23    1
    70    22    94    1
    71    22    95    1
    72    23    24    1
    73    23    96    1
    74    23    97    1
    75    24    98    1
    76    24    99    1
    77    24   100    1
    78    25    26    2
    79    25    27    1
    80    27    28    1
    81    27   101    1
    82    27   102    1
    83    28    29    1
    84    29    30    1
    85    29   103    1
    86    29   104    1
    87    30    31    2
    88    30    32    1
    89    32    33    1
    90    32    41    1
    91    33    34    1
    92    33   105    1
    93    33   106    1
    94    34    35    1
    95    34   107    1
    96    34   108    1
    97    35    36    1
    98    35   109    1
    99    35   110    1
   100    36    37    1
   101    36   111    1
   102    36   112    1
   103    37    38    1
   104    37   113    1
   105    37   114    1
   106    38    39    1
   107    38   115    1
   108    38   116    1
   109    39    40    1
   110    39   117    1
   111    39   118    1
   112    40   119    1
   113    40   120    1
   114    40   121    1
   115    41    42    1
   116    41   122    1
   117    41   123    1
   118    42    43    1
   119    42   124    1
   120    42   125    1
   121    43    44    1
   122    43   126    1
   123    43   127    1
   124    44    45    1
   125    44    49    1
   126    44   128    1
   127    45    46    1
   128    45   129    1
   129    45   130    1
   130    46    47    1
   131    46   131    1
   132    46   132    1
   133    47    48    1
   134    47   133    1
   135    47   134    1
   136    48   135    1
   137    48   136    1
   138    48   137    1
   139    49    50    1
   140    49   138    1
   141    49   139    1
   142    50    51    1
   143    50   140    1
   144    50   141    1
   145    51    52    1
   146    51   142    1
   147    51   143    1
   148    52    53    1
   149    52   144    1
   150    52   145    1
   151    53    54    1
   152    53   146    1
   153    53   147    1
   154    54   148    1
   155    54   149    1
   156    54   150    1
   157   151   152    1
   158   151   204    1
   159   151   205    1
   160   151   206    1
   161   152   153    1
   162   152   207    1
   163   152   208    1
   164   153   154    1
   165   153   209    1
   166   153   210    1
   167   154   155    1
   168   154   211    1
   169   154   212    1
   170   155   156    1
   171   155   213    1
   172   155   214    1
   173   156   157    1
   174   156   215    1
   175   156   216    1
   176   157   158    1
   177   157   217    1
   178   157   218    1
   179   158   159    1
   180   158   219    1
   181   158   220    1
   182   159   160    1
   183   159   174    1
   184   160   161    1
   185   160   221    1
   186   160   222    1
   187   161   162    1
   188   161   223    1
   189   161   224    1
   190   162   163    1
   191   162   225    1
   192   162   226    1
   193   163   164    1
   194   163   168    1
   195   163   227    1
   196   164   165    1
   197   164   228    1
   198   164   229    1
   199   165   166    1
   200   165   230    1
   201   165   231    1
   202   166   167    1
   203   166   232    1
   204   166   233    1
   205   167   234    1
   206   167   235    1
   207   167   236    1
   208   168   169    1
   209   168   237    1
   210   168   238    1
   211   169   170    1
   212   169   239    1
   213   169   240    1
   214   170   171    1
   215   170   241    1
   216   170   242    1
   217   171   172    1
   218   171   243    1
   219   171   244    1
   220   172   173    1
   221   172   245    1
   222   172   246    1
   223   173   247    1
   224   173   248    1
   225   173   249    1
   226   174   175    2
   227   174   176    1
   228   176   177    1
   229   176   250    1
   230   176   251    1
   231   177   178    1
   232   178   179    1
   233   178   252    1
   234   178   253    1
   235   179   180    2
   236   179   181    1
   237   181   182    1
   238   181   190    1
   239   182   183    1
   240   182   254    1
   241   182   255    1
   242   183   184    1
   243   183   256    1
   244   183   257    1
   245   184   185    1
   246   184   258    1
   247   184   259    1
   248   185   186    1
   249   185   260    1
   250   185   261    1
   251   186   187    1
   252   186   262    1
   253   186   263    1
   254   187   188    1
   255   187   264    1
   256   187   265    1
   257   188   189    1
   258   188   266    1
   259   188   267    1
   260   189   268    1
   261   189   269    1
   262   189   270    1
   263   190   191    1
   264   190   271    1
   265   190   272    1
   266   191   192    1
   267   191   273    1
   268   191   274    1
   269   192   193    1
   270   192   275    1
   271   192   276    1
   272   193   194    1
   273   193   198    1
   274   193   277    1
   275   194   195    1
   276   194   278    1
   277   194   279    1
   278   195   196    1
   279   195   280    1
   280   195   281    1
   281   196   197    1
   282   196   282    1
   283   196   283    1
   284   197   284    1
   285   197   285    1
   286   197   286    1
   287   198   199    1
   288   198   287    1
   289   198   288    1
   290   199   200    1
   291   199   289    1
   292   199   290    1
   293   200   201    1
   294   200   291    1
   295   200   292    1
   296   201   202    1
   297   201   293    1
   298   201   294    1
   299   202   203    1
   300   202   295    1
   301   202   296    1
   302   203   297    1
   303   203   298    1
   304   203   299    1
   305   300   301    1
   306   300   302    1
   307   303   304    1
   308   303   305    1
@<TRIPOS>SUBSTRUCTURE
     1 RES1      305 GROUP             0 ****  ****    0  
