@<TRIPOS>MOLECULE
square_prismatic_0_nunpairedes_0_charge_3 Charge: 3 Unpaired_Electrons: 3 XTB_Unpaired_Electrons: 0 XTB_Charge: 3
   101   116     1     0     0
SMALL
NoCharges
****
Generated from Architector

@<TRIPOS>ATOM
     1 Er1       0.4428   -0.0078    0.0338   Er        1 RES1   0.0000
     2 O1        0.6937    1.4827    1.6092   O.2       1 RES1   0.0000
     3 C1       -0.1183    2.3434    2.0478   C.2       1 RES1   0.0000
     4 C2       -1.5066    2.3204    1.4715   C.ar      1 RES1   0.0000
     5 C3       -2.5496    3.2309    1.6780   C.ar      1 RES1   0.0000
     6 C4       -3.7428    3.0829    0.9790   C.ar      1 RES1   0.0000
     7 Cl1      -5.0386    4.1504    1.3063   Cl        1 RES1   0.0000
     8 C5       -3.8529    2.0737   -0.0099   C.ar      1 RES1   0.0000
     9 C6       -4.9459    1.9386   -0.9114   C.ar      1 RES1   0.0000
    10 C7       -4.9365    0.9892   -1.8843   C.ar      1 RES1   0.0000
    11 C8       -3.8417    0.1023   -2.0480   C.ar      1 RES1   0.0000
    12 C9       -3.7374   -0.8484   -3.0936   C.ar      1 RES1   0.0000
    13 Cl2      -5.0529   -1.1589   -4.1352   Cl        1 RES1   0.0000
    14 C10      -2.5392   -1.5270   -3.2786   C.ar      1 RES1   0.0000
    15 C11      -1.4957   -1.3499   -2.3629   C.ar      1 RES1   0.0000
    16 C12      -0.1023   -1.9211   -2.4112   C.2       1 RES1   0.0000
    17 O2        0.7189   -1.4666   -1.5681   O.2       1 RES1   0.0000
    18 N1        0.3206   -2.8217   -3.2796   N.am      1 RES1   0.0000
    19 C13      -0.3674   -3.5643   -4.3269   C.3       1 RES1   0.0000
    20 C14       0.6231   -4.6735   -4.6883   C.3       1 RES1   0.0000
    21 C15       1.9672   -3.9743   -4.5122   C.3       1 RES1   0.0000
    22 C16       1.7359   -3.1985   -3.2210   C.3       1 RES1   0.0000
    23 N2       -1.6235   -0.5352   -1.3117   N.ar      1 RES1   0.0000
    24 C17      -2.7353    0.1946   -1.1717   C.ar      1 RES1   0.0000
    25 C18      -2.7442    1.1990   -0.1281   C.ar      1 RES1   0.0000
    26 N3       -1.6374    1.3032    0.6197   N.ar      1 RES1   0.0000
    27 N4        0.3202    3.2156    2.9365   N.am      1 RES1   0.0000
    28 C19       1.7372    3.1466    3.3064   C.3       1 RES1   0.0000
    29 C20       1.9814    4.4291    4.0927   C.3       1 RES1   0.0000
    30 C21       0.6412    4.6092    4.7960   C.3       1 RES1   0.0000
    31 C22      -0.3578    4.2577    3.6914   C.3       1 RES1   0.0000
    32 H1       -2.4690    4.0714    2.3415   H         1 RES1   0.0000
    33 H2       -5.7699    2.6318   -0.8424   H         1 RES1   0.0000
    34 H3       -5.7547    0.9162   -2.5793   H         1 RES1   0.0000
    35 H4       -2.4548   -2.1546   -4.1450   H         1 RES1   0.0000
    36 H5       -0.5237   -2.9097   -5.1908   H         1 RES1   0.0000
    37 H6       -1.3203   -3.9494   -3.9665   H         1 RES1   0.0000
    38 H7        0.4614   -5.0491   -5.6943   H         1 RES1   0.0000
    39 H8        0.5410   -5.5013   -3.9822   H         1 RES1   0.0000
    40 H9        2.1528   -3.2926   -5.3446   H         1 RES1   0.0000
    41 H10       2.8087   -4.6608   -4.4363   H         1 RES1   0.0000
    42 H11       2.3509   -2.2999   -3.1134   H         1 RES1   0.0000
    43 H12       1.9030   -3.8339   -2.3435   H         1 RES1   0.0000
    44 H13       2.3458    3.0431    2.4037   H         1 RES1   0.0000
    45 H14       1.8971    2.2624    3.9348   H         1 RES1   0.0000
    46 H15       2.1805    5.2669    3.4214   H         1 RES1   0.0000
    47 H16       2.8156    4.3324    4.7822   H         1 RES1   0.0000
    48 H17       0.4885    5.6143    5.1737   H         1 RES1   0.0000
    49 H18       0.5524    3.9055    5.6237   H         1 RES1   0.0000
    50 H19      -0.5271    5.1304    3.0511   H         1 RES1   0.0000
    51 H20      -1.3044    3.8923    4.0873   H         1 RES1   0.0000
    52 O3        0.3347    1.6463   -1.4284   O.2       1 RES1   0.0000
    53 C23       1.2397    2.2217   -2.0919   C.2       1 RES1   0.0000
    54 C24       2.6596    1.8782   -1.7213   C.ar      1 RES1   0.0000
    55 C25       3.8514    2.4724   -2.1555   C.ar      1 RES1   0.0000
    56 C26       5.0710    2.0316   -1.6470   C.ar      1 RES1   0.0000
    57 Cl3       6.5167    2.7488   -2.1929   Cl        1 RES1   0.0000
    58 C27       5.0936    1.0003   -0.6725   C.ar      1 RES1   0.0000
    59 C28       6.2616    0.4927   -0.0455   C.ar      1 RES1   0.0000
    60 C29       6.1868   -0.4736    0.9098   C.ar      1 RES1   0.0000
    61 C30       4.9403   -1.0155    1.3189   C.ar      1 RES1   0.0000
    62 C31       4.7747   -1.9945    2.3286   C.ar      1 RES1   0.0000
    63 Cl4       6.1141   -2.6756    3.1376   Cl        1 RES1   0.0000
    64 C32       3.4921   -2.4043    2.6720   C.ar      1 RES1   0.0000
    65 C33       2.3825   -1.8950    1.9886   C.ar      1 RES1   0.0000
    66 C34       0.9220   -2.2025    2.2193   C.2       1 RES1   0.0000
    67 O4        0.0820   -1.5427    1.5462   O.2       1 RES1   0.0000
    68 N5        0.4766   -3.0926    3.0849   N.am      1 RES1   0.0000
    69 C35      -0.9728   -3.2177    3.2476   C.3       1 RES1   0.0000
    70 C36      -1.1387   -4.1363    4.4509   C.3       1 RES1   0.0000
    71 C37       0.0833   -5.0397    4.3306   C.3       1 RES1   0.0000
    72 C38       1.1786   -4.0542    3.9265   C.3       1 RES1   0.0000
    73 N6        2.5307   -0.9936    1.0194   N.ar      1 RES1   0.0000
    74 C39       3.7545   -0.5528    0.7040   C.ar      1 RES1   0.0000
    75 C40       3.8344    0.4737   -0.3062   C.ar      1 RES1   0.0000
    76 N7        2.6741    0.8960   -0.8205   N.ar      1 RES1   0.0000
    77 N8        0.8673    3.0749   -3.0316   N.am      1 RES1   0.0000
    78 C41       1.6183    3.8666   -3.9976   C.3       1 RES1   0.0000
    79 C42       0.5531    4.2904   -5.0115   C.3       1 RES1   0.0000
    80 C43      -0.6801    4.4757   -4.1342   C.3       1 RES1   0.0000
    81 C44      -0.5750    3.2862   -3.1933   C.3       1 RES1   0.0000
    82 H21       3.8556    3.2816   -2.8672   H         1 RES1   0.0000
    83 H22       7.2197    0.8982   -0.3371   H         1 RES1   0.0000
    84 H23       7.0817   -0.8417    1.3833   H         1 RES1   0.0000
    85 H24       3.3880   -3.1098    3.4746   H         1 RES1   0.0000
    86 H25      -1.3911   -3.6647    2.3405   H         1 RES1   0.0000
    87 H26      -1.4153   -2.2245    3.3735   H         1 RES1   0.0000
    88 H27      -2.0718   -4.6903    4.4200   H         1 RES1   0.0000
    89 H28      -1.0942   -3.5657    5.3791   H         1 RES1   0.0000
    90 H29      -0.0644   -5.7753    3.5383   H         1 RES1   0.0000
    91 H30       0.3253   -5.5531    5.2559   H         1 RES1   0.0000
    92 H31       1.9835   -4.5439    3.3805   H         1 RES1   0.0000
    93 H32       1.5632   -3.5360    4.8127   H         1 RES1   0.0000
    94 H33       2.4175    3.2787   -4.4498   H         1 RES1   0.0000
    95 H34       2.0362    4.7484   -3.4980   H         1 RES1   0.0000
    96 H35       0.3864    3.4917   -5.7342   H         1 RES1   0.0000
    97 H36       0.8333    5.1915   -5.5493   H         1 RES1   0.0000
    98 H37      -1.6093    4.4729   -4.6989   H         1 RES1   0.0000
    99 H38      -0.6160    5.4115   -3.5775   H         1 RES1   0.0000
   100 H39      -1.0135    2.3832   -3.6312   H         1 RES1   0.0000
   101 H40      -1.0294    3.4430   -2.2120   H         1 RES1   0.0000
@<TRIPOS>BOND
     1     1     2    1
     2     1    17    1
     3     1    23    1
     4     1    26    1
     5     1    52    1
     6     1    67    1
     7     1    73    1
     8     1    76    1
     9     2     3    2
    10     3     4    1
    11     3    27    1
    12     4     5    1
    13     4    26    2
    14     5     6    2
    15     5    32    1
    16     6     7    1
    17     6     8    1
    18     8     9    1
    19     8    25    2
    20     9    10    2
    21     9    33    1
    22    10    11    1
    23    10    34    1
    24    11    12    1
    25    11    24    2
    26    12    13    1
    27    12    14    2
    28    14    15    1
    29    14    35    1
    30    15    16    1
    31    15    23    2
    32    16    17    2
    33    16    18    1
    34    18    19    1
    35    18    22    1
    36    19    20    1
    37    19    36    1
    38    19    37    1
    39    20    21    1
    40    20    38    1
    41    20    39    1
    42    21    22    1
    43    21    40    1
    44    21    41    1
    45    22    42    1
    46    22    43    1
    47    23    24    1
    48    24    25    1
    49    25    26    1
    50    27    28    1
    51    27    31    1
    52    28    29    1
    53    28    44    1
    54    28    45    1
    55    29    30    1
    56    29    46    1
    57    29    47    1
    58    30    31    1
    59    30    48    1
    60    30    49    1
    61    31    50    1
    62    31    51    1
    63    52    53    2
    64    53    54    1
    65    53    77    1
    66    54    55    1
    67    54    76    2
    68    55    56    2
    69    55    82    1
    70    56    57    1
    71    56    58    1
    72    58    59    1
    73    58    75    2
    74    59    60    2
    75    59    83    1
    76    60    61    1
    77    60    84    1
    78    61    62    1
    79    61    74    2
    80    62    63    1
    81    62    64    2
    82    64    65    1
    83    64    85    1
    84    65    66    1
    85    65    73    2
    86    66    67    2
    87    66    68    1
    88    68    69    1
    89    68    72    1
    90    69    70    1
    91    69    86    1
    92    69    87    1
    93    70    71    1
    94    70    88    1
    95    70    89    1
    96    71    72    1
    97    71    90    1
    98    71    91    1
    99    72    92    1
   100    72    93    1
   101    73    74    1
   102    74    75    1
   103    75    76    1
   104    77    78    1
   105    77    81    1
   106    78    79    1
   107    78    94    1
   108    78    95    1
   109    79    80    1
   110    79    96    1
   111    79    97    1
   112    80    81    1
   113    80    98    1
   114    80    99    1
   115    81   100    1
   116    81   101    1
@<TRIPOS>SUBSTRUCTURE
     1 RES1      101 GROUP             0 ****  ****    0  
