@<TRIPOS>MOLECULE
ICIGOT_geomtry_0_nunpairedes_0_charge_3 Charge: 3 Unpaired_Electrons: 3 XTB_Unpaired_Electrons: 0 XTB_Charge: 3
   225   228     1     0     0
SMALL
NoCharges
****
Generated from Architector

@<TRIPOS>ATOM
     1 Er1       0.1179    0.1528    0.0002   Er        1 RES1   0.0000
     2 C1       -0.5720   -5.9980   -3.1789   C.3       1 RES1   0.0000
     3 C2        0.3907   -4.8487   -3.4504   C.3       1 RES1   0.0000
     4 C3        1.6543   -4.9603   -2.6003   C.3       1 RES1   0.0000
     5 C4        2.6125   -3.7977   -2.8452   C.3       1 RES1   0.0000
     6 C5        3.9538   -3.9725   -2.1271   C.3       1 RES1   0.0000
     7 C6        3.9192   -3.6630   -0.6226   C.3       1 RES1   0.0000
     8 N1        3.6235   -2.2625   -0.3603   N.am      1 RES1   0.0000
     9 C7        4.6132   -1.2854   -0.8379   C.3       1 RES1   0.0000
    10 C8        5.2779   -0.4261    0.2415   C.3       1 RES1   0.0000
    11 C9        6.2491   -1.1567    1.1817   C.3       1 RES1   0.0000
    12 C10       7.1575   -0.1355    1.8645   C.3       1 RES1   0.0000
    13 C11       5.4640   -1.9487    2.2277   C.3       1 RES1   0.0000
    14 C12       6.2539   -2.9756    3.0431   C.3       1 RES1   0.0000
    15 C13       5.2527   -3.7165    3.8758   C.2       1 RES1   0.0000
    16 C14       4.6891   -4.8936    3.6195   C.2       1 RES1   0.0000
    17 C15       3.6033   -5.4413    4.5013   C.3       1 RES1   0.0000
    18 C16       5.0737   -5.8119    2.4991   C.3       1 RES1   0.0000
    19 C17       2.5106   -1.8050    0.1756   C.2       1 RES1   0.0000
    20 O1        2.2574   -0.5767    0.2164   O.2       1 RES1   0.0000
    21 C18       1.4601   -2.7288    0.8418   C.3       1 RES1   0.0000
    22 O2        0.3581   -1.8761    1.1721   O.3       1 RES1   0.0000
    23 C19      -0.2912   -2.0453    2.4343   C.3       1 RES1   0.0000
    24 C20      -1.2773   -0.8517    2.5696   C.2       1 RES1   0.0000
    25 O3       -1.3390   -0.0424    1.6124   O.2       1 RES1   0.0000
    26 N2       -2.0105   -0.6973    3.6535   N.am      1 RES1   0.0000
    27 C21      -2.1797   -1.7147    4.6762   C.3       1 RES1   0.0000
    28 C22      -3.5853   -2.3368    4.6764   C.3       1 RES1   0.0000
    29 C23      -3.9872   -3.1159    3.4183   C.3       1 RES1   0.0000
    30 C24      -4.4402   -2.2476    2.2405   C.3       1 RES1   0.0000
    31 C25      -4.8394   -3.1022    1.0340   C.3       1 RES1   0.0000
    32 C26      -5.2938   -2.2650   -0.1586   C.3       1 RES1   0.0000
    33 C27      -2.7543    0.5590    3.8417   C.3       1 RES1   0.0000
    34 C28      -1.8087    1.6897    4.2505   C.3       1 RES1   0.0000
    35 C29      -2.4572    2.9774    4.7989   C.3       1 RES1   0.0000
    36 C30      -1.3604    3.7589    5.5337   C.3       1 RES1   0.0000
    37 C31      -3.0417    3.9133    3.7278   C.3       1 RES1   0.0000
    38 C32      -4.5273    3.7572    3.3781   C.3       1 RES1   0.0000
    39 C33      -4.8330    2.5976    2.4837   C.2       1 RES1   0.0000
    40 C34      -4.4896    2.4873    1.2053   C.2       1 RES1   0.0000
    41 C35      -4.8112    1.2611    0.4026   C.3       1 RES1   0.0000
    42 C36      -3.7271    3.5147    0.4210   C.3       1 RES1   0.0000
    43 H1       -1.4521   -5.9177   -3.8091   H         1 RES1   0.0000
    44 H2       -0.8873   -6.0060   -2.1373   H         1 RES1   0.0000
    45 H3       -0.0948   -6.9489   -3.3945   H         1 RES1   0.0000
    46 H4       -0.1030   -3.8912   -3.2404   H         1 RES1   0.0000
    47 H5        0.6718   -4.8554   -4.5052   H         1 RES1   0.0000
    48 H6        2.1579   -5.8940   -2.8491   H         1 RES1   0.0000
    49 H7        1.3773   -5.0186   -1.5440   H         1 RES1   0.0000
    50 H8        2.1305   -2.8579   -2.5489   H         1 RES1   0.0000
    51 H9        2.7964   -3.7526   -3.9214   H         1 RES1   0.0000
    52 H10       4.6992   -3.3457   -2.6157   H         1 RES1   0.0000
    53 H11       4.2775   -5.0078   -2.2518   H         1 RES1   0.0000
    54 H12       4.8964   -3.8933   -0.1948   H         1 RES1   0.0000
    55 H13       3.1807   -4.2980   -0.1396   H         1 RES1   0.0000
    56 H14       4.1045   -0.6055   -1.5281   H         1 RES1   0.0000
    57 H15       5.3872   -1.8353   -1.3694   H         1 RES1   0.0000
    58 H16       4.5105    0.0797    0.8274   H         1 RES1   0.0000
    59 H17       5.8334    0.3440   -0.2961   H         1 RES1   0.0000
    60 H18       6.8709   -1.8358    0.5905   H         1 RES1   0.0000
    61 H19       6.5688    0.5599    2.4590   H         1 RES1   0.0000
    62 H20       7.7292    0.4342    1.1378   H         1 RES1   0.0000
    63 H21       7.8617   -0.6311    2.5240   H         1 RES1   0.0000
    64 H22       4.6565   -2.4949    1.7405   H         1 RES1   0.0000
    65 H23       5.0061   -1.2365    2.9117   H         1 RES1   0.0000
    66 H24       6.9769   -2.4784    3.6857   H         1 RES1   0.0000
    67 H25       6.8011   -3.6358    2.3748   H         1 RES1   0.0000
    68 H26       4.9097   -3.1652    4.7411   H         1 RES1   0.0000
    69 H27       3.3428   -4.7399    5.2896   H         1 RES1   0.0000
    70 H28       3.9280   -6.3714    4.9645   H         1 RES1   0.0000
    71 H29       2.7089   -5.6649    3.9148   H         1 RES1   0.0000
    72 H30       5.8680   -5.4093    1.8807   H         1 RES1   0.0000
    73 H31       4.2155   -6.0381    1.8649   H         1 RES1   0.0000
    74 H32       5.4232   -6.7543    2.9175   H         1 RES1   0.0000
    75 H33       1.8784   -3.2204    1.7267   H         1 RES1   0.0000
    76 H34       1.1141   -3.4968    0.1410   H         1 RES1   0.0000
    77 H35       0.4322   -2.0267    3.2625   H         1 RES1   0.0000
    78 H36      -0.8265   -3.0015    2.4551   H         1 RES1   0.0000
    79 H37      -2.0061   -1.2518    5.6507   H         1 RES1   0.0000
    80 H38      -1.4449   -2.5056    4.5402   H         1 RES1   0.0000
    81 H39      -4.3365   -1.5700    4.8640   H         1 RES1   0.0000
    82 H40      -3.6102   -3.0252    5.5219   H         1 RES1   0.0000
    83 H41      -4.8325   -3.7521    3.6875   H         1 RES1   0.0000
    84 H42      -3.1792   -3.7817    3.1017   H         1 RES1   0.0000
    85 H43      -3.6539   -1.5485    1.9419   H         1 RES1   0.0000
    86 H44      -5.3010   -1.6540    2.5530   H         1 RES1   0.0000
    87 H45      -5.6568   -3.7628    1.3237   H         1 RES1   0.0000
    88 H46      -3.9971   -3.7431    0.7495   H         1 RES1   0.0000
    89 H47      -6.1774   -1.6876    0.0992   H         1 RES1   0.0000
    90 H48      -5.5510   -2.9091   -0.9949   H         1 RES1   0.0000
    91 H49      -4.5238   -1.5630   -0.4836   H         1 RES1   0.0000
    92 H50      -3.4800    0.3957    4.6345   H         1 RES1   0.0000
    93 H51      -3.2752    0.8133    2.9196   H         1 RES1   0.0000
    94 H52      -1.1755    1.9542    3.3996   H         1 RES1   0.0000
    95 H53      -1.1726    1.2939    5.0416   H         1 RES1   0.0000
    96 H54      -3.2341    2.7147    5.5209   H         1 RES1   0.0000
    97 H55      -0.5637    4.0198    4.8387   H         1 RES1   0.0000
    98 H56      -0.9339    3.1871    6.3532   H         1 RES1   0.0000
    99 H57      -1.7543    4.6829    5.9468   H         1 RES1   0.0000
   100 H58      -2.4362    3.8127    2.8276   H         1 RES1   0.0000
   101 H59      -2.9242    4.9355    4.0901   H         1 RES1   0.0000
   102 H60      -4.8486    4.6718    2.8769   H         1 RES1   0.0000
   103 H61      -5.1033    3.6820    4.2983   H         1 RES1   0.0000
   104 H62      -5.4112    1.8018    2.9310   H         1 RES1   0.0000
   105 H63      -5.3796    0.5494    0.9920   H         1 RES1   0.0000
   106 H64      -3.8838    0.7896    0.0566   H         1 RES1   0.0000
   107 H65      -5.3995    1.5254   -0.4746   H         1 RES1   0.0000
   108 H66      -3.6001    4.4431    0.9653   H         1 RES1   0.0000
   109 H67      -4.2561    3.7352   -0.5054   H         1 RES1   0.0000
   110 H68      -2.7467    3.1080    0.1621   H         1 RES1   0.0000
   111 C37       4.2549    2.9794   -2.8587   C.3       1 RES1   0.0000
   112 C38       3.2112    3.6967   -3.7090   C.3       1 RES1   0.0000
   113 C39       2.1416    4.3450   -2.8303   C.3       1 RES1   0.0000
   114 C40       1.0911    5.1019   -3.6435   C.3       1 RES1   0.0000
   115 C41       0.0924    5.8936   -2.7943   C.3       1 RES1   0.0000
   116 C42      -1.0006    5.0480   -2.1402   C.3       1 RES1   0.0000
   117 N3       -0.5250    4.1804   -1.0768   N.am      1 RES1   0.0000
   118 C43      -0.1168    4.8164    0.1853   C.3       1 RES1   0.0000
   119 C44       1.3350    4.6117    0.6383   C.3       1 RES1   0.0000
   120 C45       1.5374    5.1139    2.0842   C.3       1 RES1   0.0000
   121 C46       1.3315    6.6283    2.1757   C.3       1 RES1   0.0000
   122 C47       2.9505    4.8197    2.6189   C.3       1 RES1   0.0000
   123 C48       3.2894    3.3615    2.9246   C.3       1 RES1   0.0000
   124 C49       2.4352    2.7807    4.0208   C.2       1 RES1   0.0000
   125 C50       2.4422    1.5185    4.4522   C.2       1 RES1   0.0000
   126 C51       3.3134    0.4457    3.8664   C.3       1 RES1   0.0000
   127 C52       1.5673    1.0356    5.5684   C.3       1 RES1   0.0000
   128 C53      -0.6205    2.8689   -1.1128   C.2       1 RES1   0.0000
   129 O4       -0.2622    2.1834   -0.1280   O.2       1 RES1   0.0000
   130 C54      -1.1949    2.1311   -2.3344   C.3       1 RES1   0.0000
   131 O5       -1.3326    0.7299   -2.0426   O.3       1 RES1   0.0000
   132 C55      -0.9934   -0.1204   -3.1444   C.3       1 RES1   0.0000
   133 C56       0.5377   -0.2663   -3.1651   C.2       1 RES1   0.0000
   134 O6        1.1089    0.1261   -2.1108   O.2       1 RES1   0.0000
   135 N4        1.2143   -0.7065   -4.2097   N.am      1 RES1   0.0000
   136 C57       2.6577   -0.4282   -4.1349   C.3       1 RES1   0.0000
   137 C58       3.6147   -0.9221   -5.2081   C.3       1 RES1   0.0000
   138 C59       4.9291   -0.1682   -4.9757   C.3       1 RES1   0.0000
   139 C60       6.0534   -0.5444   -5.9371   C.3       1 RES1   0.0000
   140 C61       7.2007    0.4711   -5.8934   C.3       1 RES1   0.0000
   141 C62       7.8625    0.5926   -4.5233   C.3       1 RES1   0.0000
   142 C63       0.6416   -1.4298   -5.3367   C.3       1 RES1   0.0000
   143 C64       0.4905   -0.5641   -6.5884   C.3       1 RES1   0.0000
   144 C65      -0.2422   -1.2217   -7.7759   C.3       1 RES1   0.0000
   145 C66      -1.6737   -1.6211   -7.4241   C.3       1 RES1   0.0000
   146 C67       0.5363   -2.3421   -8.4936   C.3       1 RES1   0.0000
   147 C68       0.5754   -3.7458   -7.8745   C.3       1 RES1   0.0000
   148 C69       1.8530   -4.0857   -7.1540   C.2       1 RES1   0.0000
   149 C70       2.1825   -5.2952   -6.7084   C.2       1 RES1   0.0000
   150 C71       1.2989   -6.5000   -6.8207   C.3       1 RES1   0.0000
   151 C72       3.5143   -5.5944   -6.0824   C.3       1 RES1   0.0000
   152 H69       5.0207    2.5381   -3.4898   H         1 RES1   0.0000
   153 H70       3.7905    2.1947   -2.2593   H         1 RES1   0.0000
   154 H71       4.7393    3.6842   -2.1877   H         1 RES1   0.0000
   155 H72       2.7378    2.9920   -4.4008   H         1 RES1   0.0000
   156 H73       3.6984    4.4635   -4.3126   H         1 RES1   0.0000
   157 H74       2.6360    5.0522   -2.1620   H         1 RES1   0.0000
   158 H75       1.6830    3.5661   -2.2111   H         1 RES1   0.0000
   159 H76       0.5564    4.4127   -4.3037   H         1 RES1   0.0000
   160 H77       1.6192    5.8107   -4.2844   H         1 RES1   0.0000
   161 H78      -0.4199    6.6000   -3.4475   H         1 RES1   0.0000
   162 H79       0.6285    6.4735   -2.0434   H         1 RES1   0.0000
   163 H80      -1.4805    4.4521   -2.9144   H         1 RES1   0.0000
   164 H81      -1.7530    5.7057   -1.6981   H         1 RES1   0.0000
   165 H82      -0.7664    4.4273    0.9755   H         1 RES1   0.0000
   166 H83      -0.3044    5.8784    0.0625   H         1 RES1   0.0000
   167 H84       2.0110    5.1653   -0.0091   H         1 RES1   0.0000
   168 H85       1.5885    3.5510    0.5705   H         1 RES1   0.0000
   169 H86       0.7940    4.6202    2.7208   H         1 RES1   0.0000
   170 H87       2.0290    7.1441    1.5211   H         1 RES1   0.0000
   171 H88       1.5216    6.9746    3.1882   H         1 RES1   0.0000
   172 H89       0.3217    6.9280    1.9144   H         1 RES1   0.0000
   173 H90       3.0934    5.3879    3.5388   H         1 RES1   0.0000
   174 H91       3.6730    5.2043    1.8993   H         1 RES1   0.0000
   175 H92       4.3320    3.3287    3.2505   H         1 RES1   0.0000
   176 H93       3.2406    2.7791    1.9989   H         1 RES1   0.0000
   177 H94       1.8130    3.4946    4.5386   H         1 RES1   0.0000
   178 H95       3.9711    0.8304    3.0933   H         1 RES1   0.0000
   179 H96       2.7144   -0.3734    3.4609   H         1 RES1   0.0000
   180 H97       3.9364    0.0288    4.6552   H         1 RES1   0.0000
   181 H98       0.9788    1.8447    5.9866   H         1 RES1   0.0000
   182 H99       2.1775    0.6121    6.3639   H         1 RES1   0.0000
   183 H100      0.8995    0.2463    5.2136   H         1 RES1   0.0000
   184 H101     -0.5257    2.2858   -3.1867   H         1 RES1   0.0000
   185 H102     -2.1927    2.5241   -2.5602   H         1 RES1   0.0000
   186 H103     -1.3838    0.2704   -4.0883   H         1 RES1   0.0000
   187 H104     -1.4686   -1.0848   -2.9416   H         1 RES1   0.0000
   188 H105      2.7332    0.6622   -4.0867   H         1 RES1   0.0000
   189 H106      3.0075   -0.8133   -3.1739   H         1 RES1   0.0000
   190 H107      3.2731   -0.6947   -6.2131   H         1 RES1   0.0000
   191 H108      3.7652   -1.9988   -5.1378   H         1 RES1   0.0000
   192 H109      5.2602   -0.3337   -3.9498   H         1 RES1   0.0000
   193 H110      4.7308    0.8995   -5.0905   H         1 RES1   0.0000
   194 H111      5.6640   -0.5750   -6.9559   H         1 RES1   0.0000
   195 H112      6.4359   -1.5370   -5.6953   H         1 RES1   0.0000
   196 H113      6.8193    1.4501   -6.1959   H         1 RES1   0.0000
   197 H114      7.9571    0.1712   -6.6212   H         1 RES1   0.0000
   198 H115      7.1670    0.9694   -3.7747   H         1 RES1   0.0000
   199 H116      8.7000    1.2830   -4.5767   H         1 RES1   0.0000
   200 H117      8.2432   -0.3710   -4.1924   H         1 RES1   0.0000
   201 H118     -0.3367   -1.8074   -5.0439   H         1 RES1   0.0000
   202 H119      1.2973   -2.2783   -5.5476   H         1 RES1   0.0000
   203 H120      1.4721   -0.2552   -6.9403   H         1 RES1   0.0000
   204 H121     -0.0523    0.3454   -6.3162   H         1 RES1   0.0000
   205 H122     -0.3215   -0.4158   -8.5165   H         1 RES1   0.0000
   206 H123     -1.7157   -2.4335   -6.7040   H         1 RES1   0.0000
   207 H124     -2.1960   -1.9460   -8.3185   H         1 RES1   0.0000
   208 H125     -2.2147   -0.7698   -7.0163   H         1 RES1   0.0000
   209 H126      1.5581   -2.0035   -8.6669   H         1 RES1   0.0000
   210 H127      0.0795   -2.4317   -9.4792   H         1 RES1   0.0000
   211 H128      0.4741   -4.4655   -8.6879   H         1 RES1   0.0000
   212 H129     -0.2852   -3.9000   -7.2220   H         1 RES1   0.0000
   213 H130      2.5833   -3.2891   -7.0823   H         1 RES1   0.0000
   214 H131      0.3332   -6.2754   -7.2580   H         1 RES1   0.0000
   215 H132      1.1437   -6.9618   -5.8468   H         1 RES1   0.0000
   216 H133      1.7902   -7.2415   -7.4469   H         1 RES1   0.0000
   217 H134      4.1487   -4.7128   -6.0255   H         1 RES1   0.0000
   218 H135      4.0279   -6.3424   -6.6843   H         1 RES1   0.0000
   219 H136      3.3900   -6.0185   -5.0852   H         1 RES1   0.0000
   220 O7       -1.7135   -1.8219   -0.5445   O.3       1 RES1   0.0000
   221 H137     -2.5691   -1.6736   -0.1061   H         1 RES1   0.0000
   222 H138     -1.7946   -2.7254   -0.8816   H         1 RES1   0.0000
   223 O8        1.1146    1.2135    1.9289   O.3       1 RES1   0.0000
   224 H139      0.8525    1.8113    2.6572   H         1 RES1   0.0000
   225 H140      2.0870    1.2521    1.9702   H         1 RES1   0.0000
@<TRIPOS>BOND
     1     1    20    1
     2     1    22    1
     3     1    25    1
     4     1   129    1
     5     1   131    1
     6     1   134    1
     7     1   220    1
     8     1   223    1
     9     2     3    1
    10     2    43    1
    11     2    44    1
    12     2    45    1
    13     3     4    1
    14     3    46    1
    15     3    47    1
    16     4     5    1
    17     4    48    1
    18     4    49    1
    19     5     6    1
    20     5    50    1
    21     5    51    1
    22     6     7    1
    23     6    52    1
    24     6    53    1
    25     7     8    1
    26     7    54    1
    27     7    55    1
    28     8     9    1
    29     8    19    1
    30     9    10    1
    31     9    56    1
    32     9    57    1
    33    10    11    1
    34    10    58    1
    35    10    59    1
    36    11    12    1
    37    11    13    1
    38    11    60    1
    39    12    61    1
    40    12    62    1
    41    12    63    1
    42    13    14    1
    43    13    64    1
    44    13    65    1
    45    14    15    1
    46    14    66    1
    47    14    67    1
    48    15    16    2
    49    15    68    1
    50    16    17    1
    51    16    18    1
    52    17    69    1
    53    17    70    1
    54    17    71    1
    55    18    72    1
    56    18    73    1
    57    18    74    1
    58    19    20    2
    59    19    21    1
    60    21    22    1
    61    21    75    1
    62    21    76    1
    63    22    23    1
    64    23    24    1
    65    23    77    1
    66    23    78    1
    67    24    25    2
    68    24    26    1
    69    26    27    1
    70    26    33    1
    71    27    28    1
    72    27    79    1
    73    27    80    1
    74    28    29    1
    75    28    81    1
    76    28    82    1
    77    29    30    1
    78    29    83    1
    79    29    84    1
    80    30    31    1
    81    30    85    1
    82    30    86    1
    83    31    32    1
    84    31    87    1
    85    31    88    1
    86    32    89    1
    87    32    90    1
    88    32    91    1
    89    33    34    1
    90    33    92    1
    91    33    93    1
    92    34    35    1
    93    34    94    1
    94    34    95    1
    95    35    36    1
    96    35    37    1
    97    35    96    1
    98    36    97    1
    99    36    98    1
   100    36    99    1
   101    37    38    1
   102    37   100    1
   103    37   101    1
   104    38    39    1
   105    38   102    1
   106    38   103    1
   107    39    40    2
   108    39   104    1
   109    40    41    1
   110    40    42    1
   111    41   105    1
   112    41   106    1
   113    41   107    1
   114    42   108    1
   115    42   109    1
   116    42   110    1
   117   111   112    1
   118   111   152    1
   119   111   153    1
   120   111   154    1
   121   112   113    1
   122   112   155    1
   123   112   156    1
   124   113   114    1
   125   113   157    1
   126   113   158    1
   127   114   115    1
   128   114   159    1
   129   114   160    1
   130   115   116    1
   131   115   161    1
   132   115   162    1
   133   116   117    1
   134   116   163    1
   135   116   164    1
   136   117   118    1
   137   117   128    1
   138   118   119    1
   139   118   165    1
   140   118   166    1
   141   119   120    1
   142   119   167    1
   143   119   168    1
   144   120   121    1
   145   120   122    1
   146   120   169    1
   147   121   170    1
   148   121   171    1
   149   121   172    1
   150   122   123    1
   151   122   173    1
   152   122   174    1
   153   123   124    1
   154   123   175    1
   155   123   176    1
   156   124   125    2
   157   124   177    1
   158   125   126    1
   159   125   127    1
   160   126   178    1
   161   126   179    1
   162   126   180    1
   163   127   181    1
   164   127   182    1
   165   127   183    1
   166   128   129    2
   167   128   130    1
   168   130   131    1
   169   130   184    1
   170   130   185    1
   171   131   132    1
   172   132   133    1
   173   132   186    1
   174   132   187    1
   175   133   134    2
   176   133   135    1
   177   135   136    1
   178   135   142    1
   179   136   137    1
   180   136   188    1
   181   136   189    1
   182   137   138    1
   183   137   190    1
   184   137   191    1
   185   138   139    1
   186   138   192    1
   187   138   193    1
   188   139   140    1
   189   139   194    1
   190   139   195    1
   191   140   141    1
   192   140   196    1
   193   140   197    1
   194   141   198    1
   195   141   199    1
   196   141   200    1
   197   142   143    1
   198   142   201    1
   199   142   202    1
   200   143   144    1
   201   143   203    1
   202   143   204    1
   203   144   145    1
   204   144   146    1
   205   144   205    1
   206   145   206    1
   207   145   207    1
   208   145   208    1
   209   146   147    1
   210   146   209    1
   211   146   210    1
   212   147   148    1
   213   147   211    1
   214   147   212    1
   215   148   149    2
   216   148   213    1
   217   149   150    1
   218   149   151    1
   219   150   214    1
   220   150   215    1
   221   150   216    1
   222   151   217    1
   223   151   218    1
   224   151   219    1
   225   220   221    1
   226   220   222    1
   227   223   224    1
   228   223   225    1
@<TRIPOS>SUBSTRUCTURE
     1 RES1      225 GROUP             0 ****  ****    0  
