@<TRIPOS>MOLECULE
YEMSEP_geometry_0_nunpairedes_0_charge_3 Charge: 3 Unpaired_Electrons: 3 XTB_Unpaired_Electrons: 0 XTB_Charge: 3
    79    91     1     0     0
SMALL
NoCharges
****
Generated from Architector

@<TRIPOS>ATOM
     1 Er1       0.2736   -1.2035    1.2954   Er        1 RES1   0.0000
     2 C1       -2.3935    0.4380    1.5612   C.3       1 RES1   0.0000
     3 C2       -2.2860    1.1697    2.9264   C.3       1 RES1   0.0000
     4 C3       -2.4495    2.6768    2.7497   C.3       1 RES1   0.0000
     5 C4       -3.2839    0.6382    3.9676   C.3       1 RES1   0.0000
     6 C5       -3.1278   -0.8433    4.3075   C.3       1 RES1   0.0000
     7 C6       -1.6908   -1.2670    4.6893   C.3       1 RES1   0.0000
     8 C7       -1.5069   -2.7689    4.4603   C.3       1 RES1   0.0000
     9 C8       -1.4010   -0.9111    6.1710   C.3       1 RES1   0.0000
    10 C9       -0.6787   -0.4986    3.9173   C.ar      1 RES1   0.0000
    11 N1        0.5585   -0.9739    3.6401   N.ar      1 RES1   0.0000
    12 C10       1.5432   -0.0334    3.5393   C.ar      1 RES1   0.0000
    13 C11       2.8778   -0.4731    3.0490   C.ar      1 RES1   0.0000
    14 C12       4.1132   -0.4261    3.6762   C.ar      1 RES1   0.0000
    15 C13       5.2279   -0.7666    2.9118   C.ar      1 RES1   0.0000
    16 C14       5.0861   -1.0557    1.5582   C.ar      1 RES1   0.0000
    17 C15       3.8063   -1.1185    1.0113   C.ar      1 RES1   0.0000
    18 C16       3.4529   -1.5320   -0.3736   C.ar      1 RES1   0.0000
    19 C17       4.3120   -1.7206   -1.4576   C.ar      1 RES1   0.0000
    20 C18       3.8016   -2.2503   -2.6411   C.ar      1 RES1   0.0000
    21 C19       2.4539   -2.6043   -2.7365   C.ar      1 RES1   0.0000
    22 C20       1.6633   -2.3568   -1.6263   C.ar      1 RES1   0.0000
    23 C21       0.3275   -2.8927   -1.2579   C.ar      1 RES1   0.0000
    24 N2       -0.4640   -2.0815   -0.5412   N.ar      1 RES1   0.0000
    25 N3       -1.5374   -2.6172    0.0961   N.ar      1 RES1   0.0000
    26 C22      -1.7269   -3.9216    0.0954   C.ar      1 RES1   0.0000
    27 C23      -0.5616   -4.6967   -0.2353   C.ar      1 RES1   0.0000
    28 N4        0.3232   -4.2012   -1.0567   N.ar      1 RES1   0.0000
    29 C24      -0.1757   -5.7684    0.7332   C.3       1 RES1   0.0000
    30 C25       0.3530   -4.9280    1.9441   C.3       1 RES1   0.0000
    31 C26       0.9289   -6.6790    0.2099   C.3       1 RES1   0.0000
    32 C27      -1.4123   -6.5916    1.1209   C.3       1 RES1   0.0000
    33 C28      -2.6656   -5.7792    1.4464   C.3       1 RES1   0.0000
    34 C29      -2.9739   -4.6145    0.4814   C.3       1 RES1   0.0000
    35 C30      -4.0120   -3.6982    1.1179   C.3       1 RES1   0.0000
    36 C31      -3.4606   -5.1554   -0.8855   C.3       1 RES1   0.0000
    37 N5        2.1433   -1.8096   -0.4965   N.ar      1 RES1   0.0000
    38 N6        2.7213   -0.8647    1.7747   N.ar      1 RES1   0.0000
    39 N7        1.3215    1.2668    3.5242   N.ar      1 RES1   0.0000
    40 N8        0.1074    1.6287    3.2587   N.ar      1 RES1   0.0000
    41 C32      -0.9082    0.8218    3.4214   C.ar      1 RES1   0.0000
    42 H1       -3.3029    0.7514    1.0477   H         1 RES1   0.0000
    43 H2       -2.4672   -0.6636    1.6935   H         1 RES1   0.0000
    44 H3       -1.5532    0.7570    0.8873   H         1 RES1   0.0000
    45 H4       -3.4691    2.9261    2.4755   H         1 RES1   0.0000
    46 H5       -1.7908    3.0756    1.9862   H         1 RES1   0.0000
    47 H6       -2.2212    3.1945    3.6761   H         1 RES1   0.0000
    48 H7       -4.2970    0.8090    3.6089   H         1 RES1   0.0000
    49 H8       -3.1572    1.2314    4.8724   H         1 RES1   0.0000
    50 H9       -3.4653   -1.4493    3.4616   H         1 RES1   0.0000
    51 H10      -3.7840   -1.0758    5.1501   H         1 RES1   0.0000
    52 H11      -2.2800   -3.3146    4.9968   H         1 RES1   0.0000
    53 H12      -0.5361   -3.1117    4.8133   H         1 RES1   0.0000
    54 H13      -1.5957   -2.9844    3.3817   H         1 RES1   0.0000
    55 H14      -2.1196   -1.4317    6.8011   H         1 RES1   0.0000
    56 H15      -1.5045    0.1529    6.3572   H         1 RES1   0.0000
    57 H16      -0.4006   -1.2157    6.4649   H         1 RES1   0.0000
    58 H17       4.2254   -0.1379    4.7072   H         1 RES1   0.0000
    59 H18       6.2082   -0.7779    3.3657   H         1 RES1   0.0000
    60 H19       5.9623   -1.2438    0.9576   H         1 RES1   0.0000
    61 H20       5.3549   -1.4537   -1.3967   H         1 RES1   0.0000
    62 H21       4.4601   -2.4290   -3.4807   H         1 RES1   0.0000
    63 H22       2.0552   -3.0548   -3.6350   H         1 RES1   0.0000
    64 H23       0.7482   -3.9164    1.6477   H         1 RES1   0.0000
    65 H24       1.1786   -5.4454    2.4251   H         1 RES1   0.0000
    66 H25      -0.4298   -4.7853    2.6865   H         1 RES1   0.0000
    67 H26       1.8296   -6.1195   -0.0238   H         1 RES1   0.0000
    68 H27       0.5940   -7.1864   -0.6885   H         1 RES1   0.0000
    69 H28       1.1549   -7.4378    0.9538   H         1 RES1   0.0000
    70 H29      -1.1661   -7.2124    1.9840   H         1 RES1   0.0000
    71 H30      -1.6201   -7.2690    0.2955   H         1 RES1   0.0000
    72 H31      -2.6097   -5.3607    2.4524   H         1 RES1   0.0000
    73 H32      -3.5205   -6.4561    1.4316   H         1 RES1   0.0000
    74 H33      -3.6464   -3.3177    2.0714   H         1 RES1   0.0000
    75 H34      -4.9088   -4.2734    1.3211   H         1 RES1   0.0000
    76 H35      -4.2793   -2.8568    0.4833   H         1 RES1   0.0000
    77 H36      -2.7605   -5.8857   -1.2800   H         1 RES1   0.0000
    78 H37      -3.5743   -4.3543   -1.6117   H         1 RES1   0.0000
    79 H38      -4.4242   -5.6418   -0.7655   H         1 RES1   0.0000
@<TRIPOS>BOND
     1     1    11    1
     2     1    24    1
     3     1    25    1
     4     1    28    1
     5     1    37    1
     6     1    38    1
     7     1    39    1
     8     1    40    1
     9     2     3    1
    10     2    42    1
    11     2    43    1
    12     2    44    1
    13     3     4    1
    14     3     5    1
    15     3    41    1
    16     4    45    1
    17     4    46    1
    18     4    47    1
    19     5     6    1
    20     5    48    1
    21     5    49    1
    22     6     7    1
    23     6    50    1
    24     6    51    1
    25     7     8    1
    26     7     9    1
    27     7    10    1
    28     8    52    1
    29     8    53    1
    30     8    54    1
    31     9    55    1
    32     9    56    1
    33     9    57    1
    34    10    11    1
    35    10    41    2
    36    11    12    2
    37    12    13    1
    38    12    39    1
    39    13    14    1
    40    13    38    2
    41    14    15    2
    42    14    58    1
    43    15    16    1
    44    15    59    1
    45    16    17    2
    46    16    60    1
    47    17    18    1
    48    17    38    1
    49    18    19    1
    50    18    37    2
    51    19    20    2
    52    19    61    1
    53    20    21    1
    54    20    62    1
    55    21    22    2
    56    21    63    1
    57    22    23    1
    58    22    37    1
    59    23    24    1
    60    23    28    2
    61    24    25    2
    62    25    26    1
    63    26    27    2
    64    26    34    1
    65    27    28    1
    66    27    29    1
    67    29    30    1
    68    29    31    1
    69    29    32    1
    70    30    64    1
    71    30    65    1
    72    30    66    1
    73    31    67    1
    74    31    68    1
    75    31    69    1
    76    32    33    1
    77    32    70    1
    78    32    71    1
    79    33    34    1
    80    33    72    1
    81    33    73    1
    82    34    35    1
    83    34    36    1
    84    35    74    1
    85    35    75    1
    86    35    76    1
    87    36    77    1
    88    36    78    1
    89    36    79    1
    90    39    40    2
    91    40    41    1
@<TRIPOS>SUBSTRUCTURE
     1 RES1       79 GROUP             0 ****  ****    0  
