@<TRIPOS>MOLECULE
dodecahedral_0_nunpairedes_0_charge_2 Charge: 2 Unpaired_Electrons: 3 XTB_Unpaired_Electrons: 0 XTB_Charge: 2
   315   319     1     0     0
SMALL
NoCharges
****
Generated from Architector

@<TRIPOS>ATOM
     1 Er1       0.1205    0.1997   -0.1492   Er        1 RES1   0.0000
     2 C1       -9.3115   -1.8727   -0.7780   C.3       1 RES1   0.0000
     3 C2       -9.4220   -3.0798    0.1453   C.3       1 RES1   0.0000
     4 C3       -9.6507   -4.4028   -0.5911   C.3       1 RES1   0.0000
     5 C4       -8.5469   -4.7922   -1.5800   C.3       1 RES1   0.0000
     6 C5       -7.1646   -4.7245   -0.9295   C.3       1 RES1   0.0000
     7 C6       -6.0493   -5.3277   -1.7786   C.3       1 RES1   0.0000
     8 C7       -4.6670   -4.8555   -1.3217   C.3       1 RES1   0.0000
     9 C8       -4.3691   -5.2091    0.1350   C.3       1 RES1   0.0000
    10 C9       -2.9538   -4.8203    0.5794   C.3       1 RES1   0.0000
    11 C10      -2.8097   -3.5708    1.4656   C.3       1 RES1   0.0000
    12 N1       -3.4226   -2.2967    1.0688   N.am      1 RES1   0.0000
    13 C11      -4.7307   -2.0539    1.6632   C.3       1 RES1   0.0000
    14 C12      -4.6676   -1.5169    3.1066   C.3       1 RES1   0.0000
    15 C13      -4.1938   -2.5307    4.1522   C.3       1 RES1   0.0000
    16 C14      -4.1615   -2.0281    5.5974   C.3       1 RES1   0.0000
    17 C15      -5.4808   -1.4768    6.1414   C.3       1 RES1   0.0000
    18 C16      -5.5819    0.0369    5.9695   C.3       1 RES1   0.0000
    19 C17      -6.7854    0.6347    6.6909   C.3       1 RES1   0.0000
    20 C18      -7.0083    2.1042    6.3256   C.3       1 RES1   0.0000
    21 C19      -5.7870    3.0037    6.5297   C.3       1 RES1   0.0000
    22 C20      -5.2879    3.0280    7.9706   C.3       1 RES1   0.0000
    23 C21      -2.6670   -1.3438    0.5153   C.2       1 RES1   0.0000
    24 O1       -1.4810   -1.5431    0.2002   O.2       1 RES1   0.0000
    25 C22      -3.2584    0.0581    0.2301   C.3       1 RES1   0.0000
    26 C23      -4.0348    0.0474   -1.0996   C.3       1 RES1   0.0000
    27 C24      -3.1557   -0.2048   -2.3246   C.3       1 RES1   0.0000
    28 C25      -3.9039    0.1655   -3.6039   C.3       1 RES1   0.0000
    29 O2       -2.1193    0.9436    0.2223   O.3       1 RES1   0.0000
    30 C26      -2.3041    2.3410   -0.1121   C.3       1 RES1   0.0000
    31 C27      -2.1455    3.1830    1.1588   C.3       1 RES1   0.0000
    32 C28      -3.3423    3.0620    2.0997   C.3       1 RES1   0.0000
    33 C29      -3.2240    4.0347    3.2650   C.3       1 RES1   0.0000
    34 C30      -1.1785    2.6833   -1.1236   C.2       1 RES1   0.0000
    35 O3       -0.4387    1.7371   -1.4678   O.2       1 RES1   0.0000
    36 N2       -0.9234    3.9000   -1.5912   N.am      1 RES1   0.0000
    37 C31       0.2893    4.0189   -2.4202   C.3       1 RES1   0.0000
    38 C32       1.6011    3.8919   -1.6351   C.3       1 RES1   0.0000
    39 C33       1.7538    4.8905   -0.4896   C.3       1 RES1   0.0000
    40 C34       3.0494    4.6793    0.2959   C.3       1 RES1   0.0000
    41 C35       3.2500    5.7425    1.3908   C.3       1 RES1   0.0000
    42 C36       4.3588    6.7665    1.1151   C.3       1 RES1   0.0000
    43 C37       4.0949    7.7638   -0.0246   C.3       1 RES1   0.0000
    44 C38       4.7144    7.3613   -1.3634   C.3       1 RES1   0.0000
    45 C39       4.4870    8.4122   -2.4491   C.3       1 RES1   0.0000
    46 C40       5.0657    7.9779   -3.7900   C.3       1 RES1   0.0000
    47 C41      -1.8770    4.9943   -1.7598   C.3       1 RES1   0.0000
    48 C42      -1.3403    6.3933   -1.4342   C.3       1 RES1   0.0000
    49 C43      -1.3880    6.7927    0.0384   C.3       1 RES1   0.0000
    50 C44      -2.7938    7.0209    0.5958   C.3       1 RES1   0.0000
    51 C45      -3.5774    8.1398   -0.1096   C.3       1 RES1   0.0000
    52 C46      -4.5870    7.6340   -1.1411   C.3       1 RES1   0.0000
    53 C47      -5.4687    8.7574   -1.6876   C.3       1 RES1   0.0000
    54 C48      -4.7022    9.7690   -2.5374   C.3       1 RES1   0.0000
    55 C49      -5.6032   10.8604   -3.1169   C.3       1 RES1   0.0000
    56 C50      -6.1702   11.7990   -2.0564   C.3       1 RES1   0.0000
    57 H1       -9.1747   -0.9651   -0.1951   H         1 RES1   0.0000
    58 H2      -10.2175   -1.7665   -1.3653   H         1 RES1   0.0000
    59 H3       -8.4704   -1.9733   -1.4583   H         1 RES1   0.0000
    60 H4      -10.2624   -2.9229    0.8199   H         1 RES1   0.0000
    61 H5       -8.5257   -3.1487    0.7661   H         1 RES1   0.0000
    62 H6      -10.5989   -4.3682   -1.1272   H         1 RES1   0.0000
    63 H7       -9.7276   -5.1934    0.1617   H         1 RES1   0.0000
    64 H8       -8.5757   -4.1388   -2.4550   H         1 RES1   0.0000
    65 H9       -8.7414   -5.8106   -1.9261   H         1 RES1   0.0000
    66 H10      -7.2221   -5.2472    0.0298   H         1 RES1   0.0000
    67 H11      -6.9187   -3.6780   -0.7358   H         1 RES1   0.0000
    68 H12      -6.1904   -5.0301   -2.8206   H         1 RES1   0.0000
    69 H13      -6.0914   -6.4149   -1.7321   H         1 RES1   0.0000
    70 H14      -4.5967   -3.7704   -1.4583   H         1 RES1   0.0000
    71 H15      -3.9166   -5.3271   -1.9605   H         1 RES1   0.0000
    72 H16      -4.4922   -6.2856    0.2579   H         1 RES1   0.0000
    73 H17      -5.1099   -4.7398    0.7788   H         1 RES1   0.0000
    74 H18      -2.3221   -4.7622   -0.2935   H         1 RES1   0.0000
    75 H19      -2.5464   -5.6245    1.2023   H         1 RES1   0.0000
    76 H20      -1.7439   -3.3698    1.6260   H         1 RES1   0.0000
    77 H21      -3.2670   -3.8394    2.4102   H         1 RES1   0.0000
    78 H22      -5.2660   -3.0041    1.6674   H         1 RES1   0.0000
    79 H23      -5.2990   -1.3696    1.0351   H         1 RES1   0.0000
    80 H24      -5.6844   -1.2148    3.3608   H         1 RES1   0.0000
    81 H25      -4.0206   -0.6346    3.1367   H         1 RES1   0.0000
    82 H26      -3.1677   -2.8285    3.9419   H         1 RES1   0.0000
    83 H27      -4.8364   -3.4113    4.1063   H         1 RES1   0.0000
    84 H28      -3.3935   -1.2560    5.6898   H         1 RES1   0.0000
    85 H29      -3.8511   -2.8761    6.2121   H         1 RES1   0.0000
    86 H30      -5.5432   -1.6976    7.2092   H         1 RES1   0.0000
    87 H31      -6.3219   -1.9748    5.6554   H         1 RES1   0.0000
    88 H32      -5.6422    0.3004    4.9127   H         1 RES1   0.0000
    89 H33      -4.6748    0.4912    6.3691   H         1 RES1   0.0000
    90 H34      -6.6477    0.5334    7.7678   H         1 RES1   0.0000
    91 H35      -7.6819    0.0698    6.4250   H         1 RES1   0.0000
    92 H36      -7.8342    2.4890    6.9260   H         1 RES1   0.0000
    93 H37      -7.3067    2.1601    5.2755   H         1 RES1   0.0000
    94 H38      -6.0630    4.0192    6.2363   H         1 RES1   0.0000
    95 H39      -4.9754    2.6836    5.8698   H         1 RES1   0.0000
    96 H40      -6.0974    3.2972    8.6459   H         1 RES1   0.0000
    97 H41      -4.4900    3.7612    8.0769   H         1 RES1   0.0000
    98 H42      -4.8993    2.0570    8.2710   H         1 RES1   0.0000
    99 H43      -3.9314    0.3482    1.0463   H         1 RES1   0.0000
   100 H44      -4.8157   -0.7134   -1.0471   H         1 RES1   0.0000
   101 H45      -4.5437    1.0051   -1.2229   H         1 RES1   0.0000
   102 H46      -2.8663   -1.2562   -2.3575   H         1 RES1   0.0000
   103 H47      -2.2297    0.3775   -2.2620   H         1 RES1   0.0000
   104 H48      -4.7599   -0.4891   -3.7531   H         1 RES1   0.0000
   105 H49      -3.2590    0.0695   -4.4721   H         1 RES1   0.0000
   106 H50      -4.2686    1.1906   -3.5633   H         1 RES1   0.0000
   107 H51      -3.2942    2.5023   -0.5513   H         1 RES1   0.0000
   108 H52      -1.2332    2.8648    1.6671   H         1 RES1   0.0000
   109 H53      -2.0197    4.2256    0.8786   H         1 RES1   0.0000
   110 H54      -3.3979    2.0427    2.4854   H         1 RES1   0.0000
   111 H55      -4.2649    3.2690    1.5515   H         1 RES1   0.0000
   112 H56      -2.3089    3.8518    3.8211   H         1 RES1   0.0000
   113 H57      -4.0652    3.9174    3.9402   H         1 RES1   0.0000
   114 H58      -3.2088    5.0613    2.9109   H         1 RES1   0.0000
   115 H59       0.2512    4.9892   -2.9111   H         1 RES1   0.0000
   116 H60       0.2611    3.2396   -3.1924   H         1 RES1   0.0000
   117 H61       2.4141    4.0294   -2.3497   H         1 RES1   0.0000
   118 H62       1.6856    2.8766   -1.2447   H         1 RES1   0.0000
   119 H63       0.9134    4.7779    0.1976   H         1 RES1   0.0000
   120 H64       1.7432    5.9082   -0.8825   H         1 RES1   0.0000
   121 H65       3.8996    4.7008   -0.3858   H         1 RES1   0.0000
   122 H66       3.0271    3.6875    0.7539   H         1 RES1   0.0000
   123 H67       3.5108    5.2403    2.3249   H         1 RES1   0.0000
   124 H68       2.3070    6.2702    1.5620   H         1 RES1   0.0000
   125 H69       5.2924    6.2355    0.9182   H         1 RES1   0.0000
   126 H70       4.4998    7.3328    2.0391   H         1 RES1   0.0000
   127 H71       4.5234    8.7284    0.2552   H         1 RES1   0.0000
   128 H72       3.0198    7.9129   -0.1464   H         1 RES1   0.0000
   129 H73       4.3006    6.4105   -1.7047   H         1 RES1   0.0000
   130 H74       5.7899    7.2256   -1.2308   H         1 RES1   0.0000
   131 H75       4.9517    9.3510   -2.1431   H         1 RES1   0.0000
   132 H76       3.4164    8.6008   -2.5605   H         1 RES1   0.0000
   133 H77       6.1359    7.8102   -3.7059   H         1 RES1   0.0000
   134 H78       4.9006    8.7437   -4.5430   H         1 RES1   0.0000
   135 H79       4.6028    7.0541   -4.1317   H         1 RES1   0.0000
   136 H80      -2.7781    4.7963   -1.1843   H         1 RES1   0.0000
   137 H81      -2.1553    4.9853   -2.8213   H         1 RES1   0.0000
   138 H82      -1.9353    7.1058   -2.0050   H         1 RES1   0.0000
   139 H83      -0.3159    6.5015   -1.7863   H         1 RES1   0.0000
   140 H84      -0.8276    7.7224    0.1451   H         1 RES1   0.0000
   141 H85      -0.8735    6.0421    0.6404   H         1 RES1   0.0000
   142 H86      -2.6764    7.2880    1.6477   H         1 RES1   0.0000
   143 H87      -3.3774    6.0965    0.5605   H         1 RES1   0.0000
   144 H88      -2.8804    8.8309   -0.5853   H         1 RES1   0.0000
   145 H89      -4.1345    8.7128    0.6351   H         1 RES1   0.0000
   146 H90      -5.2321    6.8916   -0.6641   H         1 RES1   0.0000
   147 H91      -4.0785    7.1421   -1.9728   H         1 RES1   0.0000
   148 H92      -5.9373    9.2705   -0.8474   H         1 RES1   0.0000
   149 H93      -6.2632    8.3203   -2.2992   H         1 RES1   0.0000
   150 H94      -4.2167    9.2444   -3.3639   H         1 RES1   0.0000
   151 H95      -3.9239   10.2446   -1.9379   H         1 RES1   0.0000
   152 H96      -6.4286   10.4005   -3.6651   H         1 RES1   0.0000
   153 H97      -5.0222   11.4518   -3.8286   H         1 RES1   0.0000
   154 H98      -6.8421   11.2736   -1.3807   H         1 RES1   0.0000
   155 H99      -6.7320   12.6011   -2.5303   H         1 RES1   0.0000
   156 H100     -5.3689   12.2447   -1.4690   H         1 RES1   0.0000
   157 C51       1.7214   -8.4799   -4.3770   C.3       1 RES1   0.0000
   158 C52       2.2197   -7.9814   -5.7294   C.3       1 RES1   0.0000
   159 C53       1.1927   -8.1305   -6.8546   C.3       1 RES1   0.0000
   160 C54      -0.1149   -7.3641   -6.6442   C.3       1 RES1   0.0000
   161 C55       0.0611   -5.8505   -6.5070   C.3       1 RES1   0.0000
   162 C56      -1.2884   -5.1582   -6.2812   C.3       1 RES1   0.0000
   163 C57      -1.2096   -3.9624   -5.3324   C.3       1 RES1   0.0000
   164 C58      -0.7701   -2.6537   -5.9854   C.3       1 RES1   0.0000
   165 C59      -0.7747   -1.4801   -4.9903   C.3       1 RES1   0.0000
   166 C60       0.6006   -0.9989   -4.5143   C.3       1 RES1   0.0000
   167 N3        1.3195   -1.8999   -3.6077   N.am      1 RES1   0.0000
   168 C61       2.2984   -2.7860   -4.2012   C.3       1 RES1   0.0000
   169 C62       3.7106   -2.2117   -4.1100   C.3       1 RES1   0.0000
   170 C63       3.9449   -0.9862   -4.9874   C.3       1 RES1   0.0000
   171 C64       5.3144   -0.3469   -4.7434   C.3       1 RES1   0.0000
   172 C65       6.4904   -1.3252   -4.8270   C.3       1 RES1   0.0000
   173 C66       6.8645   -1.9352   -3.4755   C.3       1 RES1   0.0000
   174 C67       8.0696   -2.8668   -3.5792   C.3       1 RES1   0.0000
   175 C68       8.2993   -3.6794   -2.3015   C.3       1 RES1   0.0000
   176 C69       8.4586   -2.8402   -1.0311   C.3       1 RES1   0.0000
   177 C70       9.6124   -1.8465   -1.1015   C.3       1 RES1   0.0000
   178 C71       1.1244   -1.7373   -2.3014   C.2       1 RES1   0.0000
   179 O4        0.2796   -0.9014   -1.9216   O.2       1 RES1   0.0000
   180 C72       1.9092   -2.5115   -1.1981   C.3       1 RES1   0.0000
   181 C73       1.5850   -4.0083   -1.0711   C.3       1 RES1   0.0000
   182 C74       0.1124   -4.2529   -0.7413   C.3       1 RES1   0.0000
   183 C75      -0.7928   -4.0133   -1.9502   C.3       1 RES1   0.0000
   184 O5        1.5731   -1.7901    0.0070   O.3       1 RES1   0.0000
   185 C76       1.9739   -2.2430    1.3130   C.3       1 RES1   0.0000
   186 C77       3.4181   -1.8657    1.6748   C.3       1 RES1   0.0000
   187 C78       4.4422   -2.8463    1.0984   C.3       1 RES1   0.0000
   188 C79       5.8037   -2.7349    1.7719   C.3       1 RES1   0.0000
   189 C80       0.9740   -1.5140    2.2285   C.2       1 RES1   0.0000
   190 O6        0.3960   -0.5183    1.7438   O.2       1 RES1   0.0000
   191 N4        0.6642   -1.8786    3.4629   N.am      1 RES1   0.0000
   192 C81      -0.4409   -1.1231    4.0741   C.3       1 RES1   0.0000
   193 C82      -0.2136    0.3809    4.3031   C.3       1 RES1   0.0000
   194 C83       1.0905    0.7874    4.9841   C.3       1 RES1   0.0000
   195 C84       1.2659    2.3092    4.9549   C.3       1 RES1   0.0000
   196 C85       2.5019    2.7837    5.7388   C.3       1 RES1   0.0000
   197 C86       2.2153    3.4931    7.0683   C.3       1 RES1   0.0000
   198 C87       1.6665    2.6052    8.1948   C.3       1 RES1   0.0000
   199 C88       0.1430    2.6160    8.3109   C.3       1 RES1   0.0000
   200 C89      -0.3511    1.7548    9.4716   C.3       1 RES1   0.0000
   201 C90      -1.8718    1.7397    9.5603   C.3       1 RES1   0.0000
   202 C91       1.0237   -3.1289    4.1198   C.3       1 RES1   0.0000
   203 C92       1.5047   -2.9378    5.5585   C.3       1 RES1   0.0000
   204 C93       2.9211   -2.3764    5.6316   C.3       1 RES1   0.0000
   205 C94       4.0051   -3.4133    5.3343   C.3       1 RES1   0.0000
   206 C95       4.1017   -4.5374    6.3811   C.3       1 RES1   0.0000
   207 C96       3.4648   -5.8586    5.9487   C.3       1 RES1   0.0000
   208 C97       3.7625   -6.9948    6.9291   C.3       1 RES1   0.0000
   209 C98       3.0878   -6.8200    8.2889   C.3       1 RES1   0.0000
   210 C99       3.2644   -8.0362    9.1993   C.3       1 RES1   0.0000
   211 C100      4.7069   -8.2510    9.6467   C.3       1 RES1   0.0000
   212 H101      2.5246   -8.4492   -3.6436   H         1 RES1   0.0000
   213 H102      1.3767   -9.5067   -4.4606   H         1 RES1   0.0000
   214 H103      0.8988   -7.8730   -4.0060   H         1 RES1   0.0000
   215 H104      3.1054   -8.5563   -6.0055   H         1 RES1   0.0000
   216 H105      2.5310   -6.9376   -5.6452   H         1 RES1   0.0000
   217 H106      0.9501   -9.1893   -6.9641   H         1 RES1   0.0000
   218 H107      1.6491   -7.8000   -7.7893   H         1 RES1   0.0000
   219 H108     -0.6128   -7.7420   -5.7474   H         1 RES1   0.0000
   220 H109     -0.7756   -7.5665   -7.4901   H         1 RES1   0.0000
   221 H110      0.5559   -5.4582   -7.3979   H         1 RES1   0.0000
   222 H111      0.7122   -5.6559   -5.6521   H         1 RES1   0.0000
   223 H112     -1.9683   -5.8884   -5.8345   H         1 RES1   0.0000
   224 H113     -1.7242   -4.8565   -7.2339   H         1 RES1   0.0000
   225 H114     -0.5110   -4.2186   -4.5388   H         1 RES1   0.0000
   226 H115     -2.1929   -3.8135   -4.8773   H         1 RES1   0.0000
   227 H116     -1.4507   -2.4284   -6.8074   H         1 RES1   0.0000
   228 H117      0.2197   -2.7711   -6.4276   H         1 RES1   0.0000
   229 H118     -1.3923   -1.7263   -4.1241   H         1 RES1   0.0000
   230 H119     -1.2303   -0.6158   -5.4715   H         1 RES1   0.0000
   231 H120      0.4697   -0.0526   -3.9750   H         1 RES1   0.0000
   232 H121      1.2336   -0.8225   -5.3849   H         1 RES1   0.0000
   233 H122      2.0305   -2.9420   -5.2456   H         1 RES1   0.0000
   234 H123      2.2545   -3.7531   -3.6993   H         1 RES1   0.0000
   235 H124      4.4016   -3.0053   -4.3898   H         1 RES1   0.0000
   236 H125      3.9083   -1.9218   -3.0788   H         1 RES1   0.0000
   237 H126      3.1939   -0.2255   -4.7666   H         1 RES1   0.0000
   238 H127      3.8535   -1.2721   -6.0364   H         1 RES1   0.0000
   239 H128      5.3199    0.1323   -3.7615   H         1 RES1   0.0000
   240 H129      5.4410    0.4380   -5.4903   H         1 RES1   0.0000
   241 H130      7.3690   -0.7950   -5.1989   H         1 RES1   0.0000
   242 H131      6.2620   -2.1163   -5.5453   H         1 RES1   0.0000
   243 H132      6.0357   -2.5059   -3.0568   H         1 RES1   0.0000
   244 H133      7.0911   -1.1281   -2.7796   H         1 RES1   0.0000
   245 H134      8.9605   -2.2850   -3.8150   H         1 RES1   0.0000
   246 H135      7.9099   -3.5645   -4.4059   H         1 RES1   0.0000
   247 H136      9.1949   -4.2893   -2.4368   H         1 RES1   0.0000
   248 H137      7.4542   -4.3612   -2.1633   H         1 RES1   0.0000
   249 H138      8.6344   -3.5244   -0.1969   H         1 RES1   0.0000
   250 H139      7.5292   -2.3031   -0.8249   H         1 RES1   0.0000
   251 H140     10.5336   -2.3541   -1.3782   H         1 RES1   0.0000
   252 H141      9.7564   -1.3748   -0.1318   H         1 RES1   0.0000
   253 H142      9.4139   -1.0672   -1.8335   H         1 RES1   0.0000
   254 H143      2.9817   -2.3843   -1.3977   H         1 RES1   0.0000
   255 H144      1.8537   -4.5469   -1.9780   H         1 RES1   0.0000
   256 H145      2.2146   -4.4182   -0.2785   H         1 RES1   0.0000
   257 H146     -0.1755   -3.5837    0.0662   H         1 RES1   0.0000
   258 H147     -0.0056   -5.2810   -0.4033   H         1 RES1   0.0000
   259 H148     -0.9602   -4.9350   -2.4987   H         1 RES1   0.0000
   260 H149     -0.3398   -3.2924   -2.6172   H         1 RES1   0.0000
   261 H150     -1.7528   -3.5971   -1.6581   H         1 RES1   0.0000
   262 H151      1.8318   -3.3261    1.4145   H         1 RES1   0.0000
   263 H152      3.6177   -0.8510    1.3317   H         1 RES1   0.0000
   264 H153      3.5038   -1.8589    2.7607   H         1 RES1   0.0000
   265 H154      4.5645   -2.6656    0.0296   H         1 RES1   0.0000
   266 H155      4.0769   -3.8696    1.2287   H         1 RES1   0.0000
   267 H156      6.1896   -1.7232    1.7174   H         1 RES1   0.0000
   268 H157      6.5057   -3.3960    1.2708   H         1 RES1   0.0000
   269 H158      5.7504   -3.0245    2.8162   H         1 RES1   0.0000
   270 H159     -0.6840   -1.6107    5.0174   H         1 RES1   0.0000
   271 H160     -1.3057   -1.2243    3.3994   H         1 RES1   0.0000
   272 H161     -1.0581    0.7251    4.9033   H         1 RES1   0.0000
   273 H162     -0.2630    0.8964    3.3421   H         1 RES1   0.0000
   274 H163      1.9275    0.3489    4.4400   H         1 RES1   0.0000
   275 H164      1.1204    0.4269    6.0127   H         1 RES1   0.0000
   276 H165      0.3730    2.7965    5.3489   H         1 RES1   0.0000
   277 H166      1.3698    2.6058    3.9094   H         1 RES1   0.0000
   278 H167      3.0612    3.4890    5.1203   H         1 RES1   0.0000
   279 H168      3.1612    1.9319    5.9230   H         1 RES1   0.0000
   280 H169      1.5262    4.3245    6.8975   H         1 RES1   0.0000
   281 H170      3.1624    3.9236    7.4027   H         1 RES1   0.0000
   282 H171      2.0693    2.9596    9.1461   H         1 RES1   0.0000
   283 H172      2.0167    1.5792    8.0596   H         1 RES1   0.0000
   284 H173     -0.3104    2.2566    7.3855   H         1 RES1   0.0000
   285 H174     -0.1952    3.6426    8.4680   H         1 RES1   0.0000
   286 H175      0.0612    2.1408   10.4051   H         1 RES1   0.0000
   287 H176      0.0179    0.7331    9.3518   H         1 RES1   0.0000
   288 H177     -2.2539    2.7461    9.7076   H         1 RES1   0.0000
   289 H178     -2.2000    1.1261   10.3952   H         1 RES1   0.0000
   290 H179     -2.3066    1.3404    8.6456   H         1 RES1   0.0000
   291 H180      1.8003   -3.6376    3.5515   H         1 RES1   0.0000
   292 H181      0.1342   -3.7698    4.1186   H         1 RES1   0.0000
   293 H182      1.4716   -3.9053    6.0569   H         1 RES1   0.0000
   294 H183      0.8274   -2.2821    6.1046   H         1 RES1   0.0000
   295 H184      3.0891   -1.9747    6.6298   H         1 RES1   0.0000
   296 H185      3.0106   -1.5425    4.9319   H         1 RES1   0.0000
   297 H186      4.9572   -2.8825    5.3056   H         1 RES1   0.0000
   298 H187      3.8510   -3.8519    4.3438   H         1 RES1   0.0000
   299 H188      3.6503   -4.2079    7.3170   H         1 RES1   0.0000
   300 H189      5.1528   -4.7417    6.5913   H         1 RES1   0.0000
   301 H190      3.8624   -6.1369    4.9694   H         1 RES1   0.0000
   302 H191      2.3824   -5.7553    5.8444   H         1 RES1   0.0000
   303 H192      4.8426   -7.0601    7.0663   H         1 RES1   0.0000
   304 H193      3.4216   -7.9375    6.4911   H         1 RES1   0.0000
   305 H194      2.0183   -6.6560    8.1373   H         1 RES1   0.0000
   306 H195      3.4932   -5.9422    8.7950   H         1 RES1   0.0000
   307 H196      2.9142   -8.9332    8.6830   H         1 RES1   0.0000
   308 H197      2.6414   -7.9018   10.0868   H         1 RES1   0.0000
   309 H198      5.3499   -8.4942    8.8030   H         1 RES1   0.0000
   310 H199      4.7582   -9.0741   10.3567   H         1 RES1   0.0000
   311 H200      5.0958   -7.3573   10.1326   H         1 RES1   0.0000
   312 N5        1.8344    1.3301    0.9067   N.3       1 RES1   0.0000
   313 O7        2.5852    1.2589    1.8278   O.2       1 RES1   0.0000
   314 O8        2.1134    0.8274   -0.1912   O.co2     1 RES1   0.0000
   315 O9        0.7409    1.9032    0.9946   O.co2     1 RES1   0.0000
@<TRIPOS>BOND
     1     1    24    1
     2     1    29    1
     3     1    35    1
     4     1   179    1
     5     1   184    1
     6     1   190    1
     7     1   314    1
     8     1   315    1
     9     2     3    1
    10     2    57    1
    11     2    58    1
    12     2    59    1
    13     3     4    1
    14     3    60    1
    15     3    61    1
    16     4     5    1
    17     4    62    1
    18     4    63    1
    19     5     6    1
    20     5    64    1
    21     5    65    1
    22     6     7    1
    23     6    66    1
    24     6    67    1
    25     7     8    1
    26     7    68    1
    27     7    69    1
    28     8     9    1
    29     8    70    1
    30     8    71    1
    31     9    10    1
    32     9    72    1
    33     9    73    1
    34    10    11    1
    35    10    74    1
    36    10    75    1
    37    11    12    1
    38    11    76    1
    39    11    77    1
    40    12    13    1
    41    12    23    1
    42    13    14    1
    43    13    78    1
    44    13    79    1
    45    14    15    1
    46    14    80    1
    47    14    81    1
    48    15    16    1
    49    15    82    1
    50    15    83    1
    51    16    17    1
    52    16    84    1
    53    16    85    1
    54    17    18    1
    55    17    86    1
    56    17    87    1
    57    18    19    1
    58    18    88    1
    59    18    89    1
    60    19    20    1
    61    19    90    1
    62    19    91    1
    63    20    21    1
    64    20    92    1
    65    20    93    1
    66    21    22    1
    67    21    94    1
    68    21    95    1
    69    22    96    1
    70    22    97    1
    71    22    98    1
    72    23    24    2
    73    23    25    1
    74    25    26    1
    75    25    29    1
    76    25    99    1
    77    26    27    1
    78    26   100    1
    79    26   101    1
    80    27    28    1
    81    27   102    1
    82    27   103    1
    83    28   104    1
    84    28   105    1
    85    28   106    1
    86    29    30    1
    87    30    31    1
    88    30    34    1
    89    30   107    1
    90    31    32    1
    91    31   108    1
    92    31   109    1
    93    32    33    1
    94    32   110    1
    95    32   111    1
    96    33   112    1
    97    33   113    1
    98    33   114    1
    99    34    35    2
   100    34    36    1
   101    36    37    1
   102    36    47    1
   103    37    38    1
   104    37   115    1
   105    37   116    1
   106    38    39    1
   107    38   117    1
   108    38   118    1
   109    39    40    1
   110    39   119    1
   111    39   120    1
   112    40    41    1
   113    40   121    1
   114    40   122    1
   115    41    42    1
   116    41   123    1
   117    41   124    1
   118    42    43    1
   119    42   125    1
   120    42   126    1
   121    43    44    1
   122    43   127    1
   123    43   128    1
   124    44    45    1
   125    44   129    1
   126    44   130    1
   127    45    46    1
   128    45   131    1
   129    45   132    1
   130    46   133    1
   131    46   134    1
   132    46   135    1
   133    47    48    1
   134    47   136    1
   135    47   137    1
   136    48    49    1
   137    48   138    1
   138    48   139    1
   139    49    50    1
   140    49   140    1
   141    49   141    1
   142    50    51    1
   143    50   142    1
   144    50   143    1
   145    51    52    1
   146    51   144    1
   147    51   145    1
   148    52    53    1
   149    52   146    1
   150    52   147    1
   151    53    54    1
   152    53   148    1
   153    53   149    1
   154    54    55    1
   155    54   150    1
   156    54   151    1
   157    55    56    1
   158    55   152    1
   159    55   153    1
   160    56   154    1
   161    56   155    1
   162    56   156    1
   163   157   158    1
   164   157   212    1
   165   157   213    1
   166   157   214    1
   167   158   159    1
   168   158   215    1
   169   158   216    1
   170   159   160    1
   171   159   217    1
   172   159   218    1
   173   160   161    1
   174   160   219    1
   175   160   220    1
   176   161   162    1
   177   161   221    1
   178   161   222    1
   179   162   163    1
   180   162   223    1
   181   162   224    1
   182   163   164    1
   183   163   225    1
   184   163   226    1
   185   164   165    1
   186   164   227    1
   187   164   228    1
   188   165   166    1
   189   165   229    1
   190   165   230    1
   191   166   167    1
   192   166   231    1
   193   166   232    1
   194   167   168    1
   195   167   178    1
   196   168   169    1
   197   168   233    1
   198   168   234    1
   199   169   170    1
   200   169   235    1
   201   169   236    1
   202   170   171    1
   203   170   237    1
   204   170   238    1
   205   171   172    1
   206   171   239    1
   207   171   240    1
   208   172   173    1
   209   172   241    1
   210   172   242    1
   211   173   174    1
   212   173   243    1
   213   173   244    1
   214   174   175    1
   215   174   245    1
   216   174   246    1
   217   175   176    1
   218   175   247    1
   219   175   248    1
   220   176   177    1
   221   176   249    1
   222   176   250    1
   223   177   251    1
   224   177   252    1
   225   177   253    1
   226   178   179    2
   227   178   180    1
   228   180   181    1
   229   180   184    1
   230   180   254    1
   231   181   182    1
   232   181   255    1
   233   181   256    1
   234   182   183    1
   235   182   257    1
   236   182   258    1
   237   183   259    1
   238   183   260    1
   239   183   261    1
   240   184   185    1
   241   185   186    1
   242   185   189    1
   243   185   262    1
   244   186   187    1
   245   186   263    1
   246   186   264    1
   247   187   188    1
   248   187   265    1
   249   187   266    1
   250   188   267    1
   251   188   268    1
   252   188   269    1
   253   189   190    2
   254   189   191    1
   255   191   192    1
   256   191   202    1
   257   192   193    1
   258   192   270    1
   259   192   271    1
   260   193   194    1
   261   193   272    1
   262   193   273    1
   263   194   195    1
   264   194   274    1
   265   194   275    1
   266   195   196    1
   267   195   276    1
   268   195   277    1
   269   196   197    1
   270   196   278    1
   271   196   279    1
   272   197   198    1
   273   197   280    1
   274   197   281    1
   275   198   199    1
   276   198   282    1
   277   198   283    1
   278   199   200    1
   279   199   284    1
   280   199   285    1
   281   200   201    1
   282   200   286    1
   283   200   287    1
   284   201   288    1
   285   201   289    1
   286   201   290    1
   287   202   203    1
   288   202   291    1
   289   202   292    1
   290   203   204    1
   291   203   293    1
   292   203   294    1
   293   204   205    1
   294   204   295    1
   295   204   296    1
   296   205   206    1
   297   205   297    1
   298   205   298    1
   299   206   207    1
   300   206   299    1
   301   206   300    1
   302   207   208    1
   303   207   301    1
   304   207   302    1
   305   208   209    1
   306   208   303    1
   307   208   304    1
   308   209   210    1
   309   209   305    1
   310   209   306    1
   311   210   211    1
   312   210   307    1
   313   210   308    1
   314   211   309    1
   315   211   310    1
   316   211   311    1
   317   312   313    2
   318   312   314    1
   319   312   315    1
@<TRIPOS>SUBSTRUCTURE
     1 RES1      315 GROUP             0 ****  ****    0  
