@<TRIPOS>MOLECULE
ICIGOT_geomtry_0_nunpairedes_0_charge_3 Charge: 3 Unpaired_Electrons: 3 XTB_Unpaired_Electrons: 0 XTB_Charge: 3
    65    73     1     0     0
SMALL
NoCharges
****
Generated from Architector

@<TRIPOS>ATOM
     1 Er1       0.0793    0.5640    1.0316   Er        1 RES1   0.0000
     2 C1       -1.3488    4.3818   -1.4644   C.3       1 RES1   0.0000
     3 C2       -2.3541    3.2526   -1.2300   C.3       1 RES1   0.0000
     4 C3       -2.2946    2.1465   -2.3020   C.3       1 RES1   0.0000
     5 C4       -1.1389    1.2148   -2.1629   C.ar      1 RES1   0.0000
     6 N1       -0.3304    1.4628   -1.1475   N.ar      1 RES1   0.0000
     7 N2        0.7891    0.7583   -0.9780   N.ar      1 RES1   0.0000
     8 C5        0.9668   -0.3704   -1.6901   C.ar      1 RES1   0.0000
     9 C6        1.9380   -1.2481   -0.9728   C.ar      1 RES1   0.0000
    10 C7        2.8558   -2.1975   -1.3966   C.ar      1 RES1   0.0000
    11 C8        3.6104   -2.8430   -0.4143   C.ar      1 RES1   0.0000
    12 C9        3.4793   -2.5379    0.9405   C.ar      1 RES1   0.0000
    13 C10       2.5114   -1.6043    1.2821   C.ar      1 RES1   0.0000
    14 C11       1.9984   -1.0596    2.5722   C.ar      1 RES1   0.0000
    15 N3        2.7185   -0.3227    3.4156   N.ar      1 RES1   0.0000
    16 N4        2.1022    0.6752    3.9203   N.ar      1 RES1   0.0000
    17 C12       0.8034    0.8995    3.8750   C.ar      1 RES1   0.0000
    18 C13       0.3173    2.2927    4.1524   C.3       1 RES1   0.0000
    19 C14       1.0902    3.3490    3.3416   C.3       1 RES1   0.0000
    20 C15       0.9919    3.1615    1.8225   C.3       1 RES1   0.0000
    21 C16      -0.0026   -0.2262    3.4674   C.ar      1 RES1   0.0000
    22 C17      -1.3982   -0.6690    3.8209   C.3       1 RES1   0.0000
    23 C18      -2.5607    0.3028    3.5496   C.3       1 RES1   0.0000
    24 C19      -2.6206    0.8948    2.1334   C.3       1 RES1   0.0000
    25 N5        0.6592   -1.0683    2.6532   N.ar      1 RES1   0.0000
    26 N6        1.7731   -0.9998    0.3429   N.ar      1 RES1   0.0000
    27 N7        0.1750   -0.7207   -2.6831   N.ar      1 RES1   0.0000
    28 C20      -0.8460    0.0716   -3.0074   C.ar      1 RES1   0.0000
    29 C21      -1.7351   -0.3654   -4.0949   C.3       1 RES1   0.0000
    30 C22      -1.9670   -1.8888   -4.2038   C.3       1 RES1   0.0000
    31 C23      -2.2149   -2.5742   -2.8684   C.3       1 RES1   0.0000
    32 H1       -1.4454    5.1292   -0.6847   H         1 RES1   0.0000
    33 H2       -1.5481    4.8968   -2.3997   H         1 RES1   0.0000
    34 H3       -0.3189    4.0229   -1.4746   H         1 RES1   0.0000
    35 H4       -3.3667    3.6612   -1.2368   H         1 RES1   0.0000
    36 H5       -2.1915    2.8117   -0.2303   H         1 RES1   0.0000
    37 H6       -2.2038    2.6162   -3.2870   H         1 RES1   0.0000
    38 H7       -3.2317    1.5835   -2.3177   H         1 RES1   0.0000
    39 H8        2.9792   -2.4334   -2.4436   H         1 RES1   0.0000
    40 H9        4.3263   -3.5954   -0.7140   H         1 RES1   0.0000
    41 H10       4.0834   -3.0294    1.6892   H         1 RES1   0.0000
    42 H11       0.4673    2.5328    5.2111   H         1 RES1   0.0000
    43 H12      -0.7546    2.3634    3.9490   H         1 RES1   0.0000
    44 H13       2.1438    3.3393    3.6310   H         1 RES1   0.0000
    45 H14       0.6727    4.3246    3.5974   H         1 RES1   0.0000
    46 H15       1.5769    2.2579    1.4896   H         1 RES1   0.0000
    47 H16       1.4776    4.0149    1.3432   H         1 RES1   0.0000
    48 H17      -0.0663    3.1807    1.4735   H         1 RES1   0.0000
    49 H18      -1.4194   -0.9037    4.8889   H         1 RES1   0.0000
    50 H19      -1.5668   -1.6161    3.2946   H         1 RES1   0.0000
    51 H20      -2.5575    1.1023    4.2920   H         1 RES1   0.0000
    52 H21      -3.4877   -0.2560    3.6997   H         1 RES1   0.0000
    53 H22      -1.6995    1.4972    1.8673   H         1 RES1   0.0000
    54 H23      -3.4571    1.5986    2.1013   H         1 RES1   0.0000
    55 H24      -2.8405    0.1282    1.3740   H         1 RES1   0.0000
    56 H25      -1.2611   -0.0644   -5.0377   H         1 RES1   0.0000
    57 H26      -2.6813    0.1660   -4.0380   H         1 RES1   0.0000
    58 H27      -1.1277   -2.3648   -4.7048   H         1 RES1   0.0000
    59 H28      -2.8454   -2.0276   -4.8315   H         1 RES1   0.0000
    60 H29      -1.2814   -2.6762   -2.3135   H         1 RES1   0.0000
    61 H30      -2.6117   -3.5685   -3.0516   H         1 RES1   0.0000
    62 H31      -2.9594   -2.0315   -2.2903   H         1 RES1   0.0000
    63 O1       -1.3572   -1.3647    0.3044   O.3       1 RES1   0.0000
    64 H32      -1.7774   -2.0110    0.9009   H         1 RES1   0.0000
    65 H33      -1.4551   -1.7860   -0.5740   H         1 RES1   0.0000
@<TRIPOS>BOND
     1     1     6    1
     2     1     7    1
     3     1    15    1
     4     1    16    1
     5     1    25    1
     6     1    26    1
     7     1    27    1
     8     1    63    1
     9     2     3    1
    10     2    32    1
    11     2    33    1
    12     2    34    1
    13     3     4    1
    14     3    35    1
    15     3    36    1
    16     4     5    1
    17     4    37    1
    18     4    38    1
    19     5     6    1
    20     5    28    2
    21     6     7    2
    22     7     8    1
    23     8     9    1
    24     8    27    2
    25     9    10    1
    26     9    26    2
    27    10    11    2
    28    10    39    1
    29    11    12    1
    30    11    40    1
    31    12    13    2
    32    12    41    1
    33    13    14    1
    34    13    26    1
    35    14    15    1
    36    14    25    2
    37    15    16    2
    38    16    17    1
    39    17    18    1
    40    17    21    2
    41    18    19    1
    42    18    42    1
    43    18    43    1
    44    19    20    1
    45    19    44    1
    46    19    45    1
    47    20    46    1
    48    20    47    1
    49    20    48    1
    50    21    22    1
    51    21    25    1
    52    22    23    1
    53    22    49    1
    54    22    50    1
    55    23    24    1
    56    23    51    1
    57    23    52    1
    58    24    53    1
    59    24    54    1
    60    24    55    1
    61    27    28    1
    62    28    29    1
    63    29    30    1
    64    29    56    1
    65    29    57    1
    66    30    31    1
    67    30    58    1
    68    30    59    1
    69    31    60    1
    70    31    61    1
    71    31    62    1
    72    63    64    1
    73    63    65    1
@<TRIPOS>SUBSTRUCTURE
     1 RES1       65 GROUP             0 ****  ****    0  
