@<TRIPOS>MOLECULE
ICIGOT_geomtry_0_nunpairedes_0_charge_3 Charge: 3 Unpaired_Electrons: 3 XTB_Unpaired_Electrons: 0 XTB_Charge: 3
   193   206     1     0     0
SMALL
NoCharges
****
Generated from Architector

@<TRIPOS>ATOM
     1 Er1       0.0080   -0.1403   -0.0724   Er        1 RES1   0.0000
     2 C1       -0.3608   -0.1728   -7.8667   C.3       1 RES1   0.0000
     3 C2        0.1349   -1.5178   -8.3896   C.3       1 RES1   0.0000
     4 C3        0.3586   -2.5378   -7.2712   C.3       1 RES1   0.0000
     5 C4        0.7499   -3.9127   -7.8090   C.3       1 RES1   0.0000
     6 C5        0.6695   -5.0251   -6.7570   C.3       1 RES1   0.0000
     7 C6        1.9373   -5.2025   -5.9075   C.3       1 RES1   0.0000
     8 C7        2.2013   -4.3394   -4.7045   C.ar      1 RES1   0.0000
     9 C8        1.3091   -4.1765   -3.6446   C.ar      1 RES1   0.0000
    10 C9        1.6938   -3.5507   -2.4677   C.ar      1 RES1   0.0000
    11 C10       2.9873   -3.0677   -2.3174   C.ar      1 RES1   0.0000
    12 N1        3.4355   -2.4816   -1.0808   N.am      1 RES1   0.0000
    13 C11       4.6745   -3.0475   -0.5321   C.3       1 RES1   0.0000
    14 C12       4.5672   -3.4659    0.9240   C.3       1 RES1   0.0000
    15 C13       2.7613   -1.4451   -0.6050   C.2       1 RES1   0.0000
    16 O1        1.7517   -0.9812   -1.2062   O.2       1 RES1   0.0000
    17 C14       3.1457   -0.6341    0.6180   C.ar      1 RES1   0.0000
    18 C15       4.4240   -0.1648    0.9151   C.ar      1 RES1   0.0000
    19 C16       4.5686    0.8477    1.8576   C.ar      1 RES1   0.0000
    20 C17       3.4395    1.3336    2.5011   C.ar      1 RES1   0.0000
    21 C18       2.1959    0.7882    2.1906   C.ar      1 RES1   0.0000
    22 C19       0.9326    1.2777    2.7939   C.ar      1 RES1   0.0000
    23 C20       0.8491    2.1149    3.9086   C.ar      1 RES1   0.0000
    24 C21      -0.4054    2.3772    4.4416   C.ar      1 RES1   0.0000
    25 C22      -1.5450    1.8984    3.8064   C.ar      1 RES1   0.0000
    26 C23      -1.3840    1.2512    2.5771   C.ar      1 RES1   0.0000
    27 C24      -2.4451    0.7875    1.6174   C.2       1 RES1   0.0000
    28 O2       -2.0829   -0.0722    0.7629   O.2       1 RES1   0.0000
    29 N2       -3.6853    1.2862    1.6372   N.am      1 RES1   0.0000
    30 C25      -3.9922    2.6289    2.1321   C.3       1 RES1   0.0000
    31 C26      -5.0169    2.6653    3.2532   C.3       1 RES1   0.0000
    32 C27      -4.7334    0.5921    0.9585   C.ar      1 RES1   0.0000
    33 C28      -5.8104    1.2411    0.3552   C.ar      1 RES1   0.0000
    34 C29      -6.8448    0.5103   -0.2027   C.ar      1 RES1   0.0000
    35 C30      -6.8333   -0.8806   -0.2182   C.ar      1 RES1   0.0000
    36 C31      -7.9529   -1.6934   -0.7929   C.3       1 RES1   0.0000
    37 C32      -7.5184   -2.6446   -1.9246   C.3       1 RES1   0.0000
    38 C33      -7.7561   -2.1303   -3.3439   C.3       1 RES1   0.0000
    39 C34      -6.9804   -0.8605   -3.7183   C.3       1 RES1   0.0000
    40 C35      -7.8285    0.4051   -3.6019   C.3       1 RES1   0.0000
    41 C36      -7.0543    1.6533   -4.0044   C.3       1 RES1   0.0000
    42 C37      -5.7398   -1.5153    0.3705   C.ar      1 RES1   0.0000
    43 C38      -4.7194   -0.8029    0.9586   C.ar      1 RES1   0.0000
    44 N3       -0.1689    0.8934    2.1452   N.ar      1 RES1   0.0000
    45 N4        2.0622   -0.1637    1.2525   N.ar      1 RES1   0.0000
    46 C39       3.8748   -3.1852   -3.3803   C.ar      1 RES1   0.0000
    47 C40       3.4799   -3.8065   -4.5487   C.ar      1 RES1   0.0000
    48 H1       -0.5658    0.4932   -8.6985   H         1 RES1   0.0000
    49 H2        0.3853    0.3091   -7.2361   H         1 RES1   0.0000
    50 H3       -1.2829   -0.2869   -7.2968   H         1 RES1   0.0000
    51 H4        1.0585   -1.3712   -8.9521   H         1 RES1   0.0000
    52 H5       -0.6103   -1.9228   -9.0775   H         1 RES1   0.0000
    53 H6       -0.5856   -2.6597   -6.7323   H         1 RES1   0.0000
    54 H7        1.1233   -2.1807   -6.5705   H         1 RES1   0.0000
    55 H8        1.7537   -3.8849   -8.2375   H         1 RES1   0.0000
    56 H9        0.0602   -4.1651   -8.6171   H         1 RES1   0.0000
    57 H10       0.5249   -5.9677   -7.2876   H         1 RES1   0.0000
    58 H11      -0.2088   -4.8846   -6.1232   H         1 RES1   0.0000
    59 H12       2.8003   -5.1188   -6.5697   H         1 RES1   0.0000
    60 H13       1.9336   -6.2293   -5.5268   H         1 RES1   0.0000
    61 H14       0.3066   -4.5742   -3.7290   H         1 RES1   0.0000
    62 H15       1.0072   -3.4762   -1.6371   H         1 RES1   0.0000
    63 H16       5.4917   -2.3381   -0.6882   H         1 RES1   0.0000
    64 H17       4.9067   -3.9368   -1.1225   H         1 RES1   0.0000
    65 H18       4.2285   -2.6604    1.5650   H         1 RES1   0.0000
    66 H19       5.5416   -3.7921    1.2701   H         1 RES1   0.0000
    67 H20       3.8886   -4.3047    1.0243   H         1 RES1   0.0000
    68 H21       5.2777   -0.5654    0.3959   H         1 RES1   0.0000
    69 H22       5.5429    1.2656    2.0744   H         1 RES1   0.0000
    70 H23       3.5016    2.1583    3.1917   H         1 RES1   0.0000
    71 H24       1.7373    2.5282    4.3589   H         1 RES1   0.0000
    72 H25      -0.4933    2.9530    5.3505   H         1 RES1   0.0000
    73 H26      -2.5093    1.9919    4.2805   H         1 RES1   0.0000
    74 H27      -4.3860    3.1882    1.2791   H         1 RES1   0.0000
    75 H28      -3.0638    3.1137    2.4312   H         1 RES1   0.0000
    76 H29      -5.9577    2.2363    2.9239   H         1 RES1   0.0000
    77 H30      -5.1869    3.7017    3.5262   H         1 RES1   0.0000
    78 H31      -4.6744    2.1288    4.1318   H         1 RES1   0.0000
    79 H32      -5.8741    2.3173    0.3108   H         1 RES1   0.0000
    80 H33      -7.6878    1.0432   -0.6156   H         1 RES1   0.0000
    81 H34      -8.7599   -1.0500   -1.1388   H         1 RES1   0.0000
    82 H35      -8.3657   -2.3051    0.0131   H         1 RES1   0.0000
    83 H36      -8.0824   -3.5741   -1.8274   H         1 RES1   0.0000
    84 H37      -6.4603   -2.8863   -1.8043   H         1 RES1   0.0000
    85 H38      -8.8238   -1.9628   -3.4932   H         1 RES1   0.0000
    86 H39      -7.4671   -2.9393   -4.0187   H         1 RES1   0.0000
    87 H40      -6.6497   -0.9475   -4.7563   H         1 RES1   0.0000
    88 H41      -6.0849   -0.7728   -3.0920   H         1 RES1   0.0000
    89 H42      -8.1884    0.5154   -2.5794   H         1 RES1   0.0000
    90 H43      -8.6995    0.2974   -4.2510   H         1 RES1   0.0000
    91 H44      -6.1613    1.7713   -3.3911   H         1 RES1   0.0000
    92 H45      -7.6761    2.5339   -3.8771   H         1 RES1   0.0000
    93 H46      -6.7546    1.5958   -5.0480   H         1 RES1   0.0000
    94 H47      -5.6925   -2.5899    0.4064   H         1 RES1   0.0000
    95 H48      -3.9238   -1.3459    1.4474   H         1 RES1   0.0000
    96 H49       4.8865   -2.8247   -3.3014   H         1 RES1   0.0000
    97 H50       4.1936   -3.8975   -5.3542   H         1 RES1   0.0000
    98 C41      -5.3222    7.5436    1.1373   C.3       1 RES1   0.0000
    99 C42      -5.7184    7.8754   -0.2959   C.3       1 RES1   0.0000
   100 C43      -5.7210    6.6377   -1.1944   C.3       1 RES1   0.0000
   101 C44      -6.1479    6.9872   -2.6213   C.3       1 RES1   0.0000
   102 C45      -6.0768    5.8053   -3.5964   C.3       1 RES1   0.0000
   103 C46      -4.7570    5.7078   -4.3886   C.3       1 RES1   0.0000
   104 C47      -3.5863    5.3638   -3.5225   C.ar      1 RES1   0.0000
   105 C48      -2.8261    6.3341   -2.8737   C.ar      1 RES1   0.0000
   106 C49      -1.8054    5.9974   -2.0039   C.ar      1 RES1   0.0000
   107 C50      -1.5232    4.6617   -1.7419   C.ar      1 RES1   0.0000
   108 N5       -0.6118    4.2839   -0.7092   N.am      1 RES1   0.0000
   109 C51      -0.7593    4.9151    0.6032   C.3       1 RES1   0.0000
   110 C52       0.4933    5.6605    1.0353   C.3       1 RES1   0.0000
   111 C53       0.1176    3.1778   -0.8006   C.2       1 RES1   0.0000
   112 O3        0.5569    2.5263    0.1750   O.2       1 RES1   0.0000
   113 C54       0.3787    2.5573   -2.1399   C.ar      1 RES1   0.0000
   114 C55       1.0605    3.1335   -3.2055   C.ar      1 RES1   0.0000
   115 C56       1.3647    2.3119   -4.2839   C.ar      1 RES1   0.0000
   116 C57       0.8913    1.0055   -4.3074   C.ar      1 RES1   0.0000
   117 C58       0.1231    0.5435   -3.2420   C.ar      1 RES1   0.0000
   118 C59      -0.6467   -0.7167   -3.2046   C.ar      1 RES1   0.0000
   119 C60      -0.9807   -1.4457   -4.3404   C.ar      1 RES1   0.0000
   120 C61      -1.8065   -2.5495   -4.2006   C.ar      1 RES1   0.0000
   121 C62      -2.1896   -2.9641   -2.9379   C.ar      1 RES1   0.0000
   122 C63      -1.7332   -2.2380   -1.8370   C.ar      1 RES1   0.0000
   123 C64      -1.4947   -2.9252   -0.5205   C.2       1 RES1   0.0000
   124 O4       -0.4934   -2.5225    0.1217   O.2       1 RES1   0.0000
   125 N6       -2.0569   -4.1328   -0.2918   N.am      1 RES1   0.0000
   126 C65      -1.1670   -5.2915   -0.1205   C.3       1 RES1   0.0000
   127 C66      -1.4381   -6.2417   -1.2848   C.3       1 RES1   0.0000
   128 C67      -3.4350   -4.4142    0.0321   C.ar      1 RES1   0.0000
   129 C68      -4.4437   -4.7361   -0.8622   C.ar      1 RES1   0.0000
   130 C69      -5.7080   -5.0421   -0.3884   C.ar      1 RES1   0.0000
   131 C70      -6.0166   -5.0588    0.9714   C.ar      1 RES1   0.0000
   132 C71      -7.4401   -5.3460    1.3642   C.3       1 RES1   0.0000
   133 C72      -7.9532   -4.9959    2.7669   C.3       1 RES1   0.0000
   134 C73      -8.1239   -3.5004    3.0612   C.3       1 RES1   0.0000
   135 C74      -6.8580   -2.8238    3.5857   C.3       1 RES1   0.0000
   136 C75      -7.0891   -1.3633    3.9678   C.3       1 RES1   0.0000
   137 C76      -5.8335   -0.7576    4.5819   C.3       1 RES1   0.0000
   138 C77      -4.9677   -4.8354    1.8564   C.ar      1 RES1   0.0000
   139 C78      -3.7074   -4.5038    1.3949   C.ar      1 RES1   0.0000
   140 N7       -1.0413   -1.1026   -1.9847   N.ar      1 RES1   0.0000
   141 N8       -0.0407    1.2899   -2.1408   N.ar      1 RES1   0.0000
   142 C79      -2.2603    3.6808   -2.3995   C.ar      1 RES1   0.0000
   143 C80      -3.2511    4.0321   -3.2953   C.ar      1 RES1   0.0000
   144 H51      -5.3247    8.4427    1.7446   H         1 RES1   0.0000
   145 H52      -4.3238    7.1089    1.1746   H         1 RES1   0.0000
   146 H53      -6.0214    6.8363    1.5768   H         1 RES1   0.0000
   147 H54      -5.0231    8.6143   -0.7023   H         1 RES1   0.0000
   148 H55      -6.7147    8.3227   -0.3019   H         1 RES1   0.0000
   149 H56      -6.4255    5.9013   -0.7931   H         1 RES1   0.0000
   150 H57      -4.7223    6.1862   -1.1989   H         1 RES1   0.0000
   151 H58      -5.5378    7.8097   -3.0005   H         1 RES1   0.0000
   152 H59      -7.1767    7.3519   -2.5805   H         1 RES1   0.0000
   153 H60      -6.8764    5.9144   -4.3296   H         1 RES1   0.0000
   154 H61      -6.2455    4.8655   -3.0660   H         1 RES1   0.0000
   155 H62      -4.6032    6.6595   -4.8972   H         1 RES1   0.0000
   156 H63      -4.8796    4.9290   -5.1451   H         1 RES1   0.0000
   157 H64      -3.0498    7.3746   -3.0367   H         1 RES1   0.0000
   158 H65      -1.2393    6.7779   -1.5241   H         1 RES1   0.0000
   159 H66      -0.9866    4.1243    1.3246   H         1 RES1   0.0000
   160 H67      -1.6112    5.5897    0.5446   H         1 RES1   0.0000
   161 H68       1.3416    4.9866    1.0835   H         1 RES1   0.0000
   162 H69       0.3461    6.0907    2.0201   H         1 RES1   0.0000
   163 H70       0.7246    6.4657    0.3476   H         1 RES1   0.0000
   164 H71       1.3255    4.1803   -3.1893   H         1 RES1   0.0000
   165 H72       1.9465    2.6905   -5.1113   H         1 RES1   0.0000
   166 H73       1.1098    0.3631   -5.1437   H         1 RES1   0.0000
   167 H74      -0.6113   -1.1593   -5.3089   H         1 RES1   0.0000
   168 H75      -2.0993   -3.1261   -5.0619   H         1 RES1   0.0000
   169 H76      -2.7744   -3.8584   -2.7986   H         1 RES1   0.0000
   170 H77      -1.3406   -5.8075    0.8251   H         1 RES1   0.0000
   171 H78      -0.1326   -4.9438   -0.1502   H         1 RES1   0.0000
   172 H79      -2.4406   -6.6551   -1.2177   H         1 RES1   0.0000
   173 H80      -0.7240   -7.0569   -1.2477   H         1 RES1   0.0000
   174 H81      -1.3335   -5.7255   -2.2367   H         1 RES1   0.0000
   175 H82      -4.2812   -4.7674   -1.9265   H         1 RES1   0.0000
   176 H83      -6.4836   -5.2869   -1.0954   H         1 RES1   0.0000
   177 H84      -7.6053   -6.4190    1.2243   H         1 RES1   0.0000
   178 H85      -8.0889   -4.8470    0.6383   H         1 RES1   0.0000
   179 H86      -7.3332   -5.4545    3.5376   H         1 RES1   0.0000
   180 H87      -8.9404   -5.4597    2.8430   H         1 RES1   0.0000
   181 H88      -8.9011   -3.3954    3.8223   H         1 RES1   0.0000
   182 H89      -8.4784   -2.9909    2.1606   H         1 RES1   0.0000
   183 H90      -6.0681   -2.8653    2.8313   H         1 RES1   0.0000
   184 H91      -6.5200   -3.3690    4.4726   H         1 RES1   0.0000
   185 H92      -7.9085   -1.2975    4.6865   H         1 RES1   0.0000
   186 H93      -7.3755   -0.7957    3.0770   H         1 RES1   0.0000
   187 H94      -5.5447   -1.3095    5.4720   H         1 RES1   0.0000
   188 H95      -6.0133    0.2730    4.8699   H         1 RES1   0.0000
   189 H96      -5.0052   -0.7895    3.8748   H         1 RES1   0.0000
   190 H97      -5.1148   -4.9225    2.9184   H         1 RES1   0.0000
   191 H98      -2.9159   -4.3169    2.1042   H         1 RES1   0.0000
   192 H99      -2.0808    2.6374   -2.1820   H         1 RES1   0.0000
   193 H100     -3.7920    3.2494   -3.8031   H         1 RES1   0.0000
@<TRIPOS>BOND
     1     1    16    1
     2     1    28    1
     3     1    44    1
     4     1    45    1
     5     1   112    1
     6     1   124    1
     7     1   140    1
     8     1   141    1
     9     2     3    1
    10     2    48    1
    11     2    49    1
    12     2    50    1
    13     3     4    1
    14     3    51    1
    15     3    52    1
    16     4     5    1
    17     4    53    1
    18     4    54    1
    19     5     6    1
    20     5    55    1
    21     5    56    1
    22     6     7    1
    23     6    57    1
    24     6    58    1
    25     7     8    1
    26     7    59    1
    27     7    60    1
    28     8     9    1
    29     8    47    2
    30     9    10    2
    31     9    61    1
    32    10    11    1
    33    10    62    1
    34    11    12    1
    35    11    46    2
    36    12    13    1
    37    12    15    1
    38    13    14    1
    39    13    63    1
    40    13    64    1
    41    14    65    1
    42    14    66    1
    43    14    67    1
    44    15    16    2
    45    15    17    1
    46    17    18    1
    47    17    45    2
    48    18    19    2
    49    18    68    1
    50    19    20    1
    51    19    69    1
    52    20    21    2
    53    20    70    1
    54    21    22    1
    55    21    45    1
    56    22    23    1
    57    22    44    2
    58    23    24    2
    59    23    71    1
    60    24    25    1
    61    24    72    1
    62    25    26    2
    63    25    73    1
    64    26    27    1
    65    26    44    1
    66    27    28    2
    67    27    29    1
    68    29    30    1
    69    29    32    1
    70    30    31    1
    71    30    74    1
    72    30    75    1
    73    31    76    1
    74    31    77    1
    75    31    78    1
    76    32    33    1
    77    32    43    2
    78    33    34    2
    79    33    79    1
    80    34    35    1
    81    34    80    1
    82    35    36    1
    83    35    42    2
    84    36    37    1
    85    36    81    1
    86    36    82    1
    87    37    38    1
    88    37    83    1
    89    37    84    1
    90    38    39    1
    91    38    85    1
    92    38    86    1
    93    39    40    1
    94    39    87    1
    95    39    88    1
    96    40    41    1
    97    40    89    1
    98    40    90    1
    99    41    91    1
   100    41    92    1
   101    41    93    1
   102    42    43    1
   103    42    94    1
   104    43    95    1
   105    46    47    1
   106    46    96    1
   107    47    97    1
   108    98    99    1
   109    98   144    1
   110    98   145    1
   111    98   146    1
   112    99   100    1
   113    99   147    1
   114    99   148    1
   115   100   101    1
   116   100   149    1
   117   100   150    1
   118   101   102    1
   119   101   151    1
   120   101   152    1
   121   102   103    1
   122   102   153    1
   123   102   154    1
   124   103   104    1
   125   103   155    1
   126   103   156    1
   127   104   105    1
   128   104   143    2
   129   105   106    2
   130   105   157    1
   131   106   107    1
   132   106   158    1
   133   107   108    1
   134   107   142    2
   135   108   109    1
   136   108   111    1
   137   109   110    1
   138   109   159    1
   139   109   160    1
   140   110   161    1
   141   110   162    1
   142   110   163    1
   143   111   112    2
   144   111   113    1
   145   113   114    1
   146   113   141    2
   147   114   115    2
   148   114   164    1
   149   115   116    1
   150   115   165    1
   151   116   117    2
   152   116   166    1
   153   117   118    1
   154   117   141    1
   155   118   119    1
   156   118   140    2
   157   119   120    2
   158   119   167    1
   159   120   121    1
   160   120   168    1
   161   121   122    2
   162   121   169    1
   163   122   123    1
   164   122   140    1
   165   123   124    2
   166   123   125    1
   167   125   126    1
   168   125   128    1
   169   126   127    1
   170   126   170    1
   171   126   171    1
   172   127   172    1
   173   127   173    1
   174   127   174    1
   175   128   129    1
   176   128   139    2
   177   129   130    2
   178   129   175    1
   179   130   131    1
   180   130   176    1
   181   131   132    1
   182   131   138    2
   183   132   133    1
   184   132   177    1
   185   132   178    1
   186   133   134    1
   187   133   179    1
   188   133   180    1
   189   134   135    1
   190   134   181    1
   191   134   182    1
   192   135   136    1
   193   135   183    1
   194   135   184    1
   195   136   137    1
   196   136   185    1
   197   136   186    1
   198   137   187    1
   199   137   188    1
   200   137   189    1
   201   138   139    1
   202   138   190    1
   203   139   191    1
   204   142   143    1
   205   142   192    1
   206   143   193    1
@<TRIPOS>SUBSTRUCTURE
     1 RES1      193 GROUP             0 ****  ****    0  
