@<TRIPOS>MOLECULE
ICIGOT_geomtry_0_nunpairedes_0_charge_3 Charge: 3 Unpaired_Electrons: 3 XTB_Unpaired_Electrons: 0 XTB_Charge: 3
   341   344     1     0     0
SMALL
NoCharges
****
Generated from Architector

@<TRIPOS>ATOM
     1 Er1       0.0200    0.0392    0.0364   Er        1 RES1   0.0000
     2 C1       -8.5746    2.0795   -2.9875   C.3       1 RES1   0.0000
     3 C2       -7.5709    1.0464   -2.4909   C.3       1 RES1   0.0000
     4 C3       -8.0154   -0.3971   -2.7192   C.3       1 RES1   0.0000
     5 C4       -6.8997   -1.4125   -2.4384   C.3       1 RES1   0.0000
     6 C5       -6.3551   -1.2916   -1.0135   C.3       1 RES1   0.0000
     7 C6       -5.3906   -2.4129   -0.5920   C.3       1 RES1   0.0000
     8 N1       -3.9973   -2.2190   -0.9783   N.am      1 RES1   0.0000
     9 C7       -3.5273   -3.0321   -2.0997   C.3       1 RES1   0.0000
    10 C8       -3.6051   -4.5431   -1.8400   C.3       1 RES1   0.0000
    11 C9       -2.7312   -5.3802   -2.7880   C.3       1 RES1   0.0000
    12 C10      -3.4007   -5.8347   -4.0872   C.3       1 RES1   0.0000
    13 C11      -3.6924   -4.7420   -5.1130   C.3       1 RES1   0.0000
    14 C12      -2.4357   -4.0147   -5.5779   C.3       1 RES1   0.0000
    15 C13      -3.1662   -1.3593   -0.3897   C.2       1 RES1   0.0000
    16 O1       -1.9716   -1.2297   -0.7213   O.2       1 RES1   0.0000
    17 C14      -3.6795   -0.4794    0.7437   C.3       1 RES1   0.0000
    18 C15      -2.8120   -0.7632    1.9584   C.2       1 RES1   0.0000
    19 O2       -1.5738   -0.6251    1.8441   O.2       1 RES1   0.0000
    20 N2       -3.3976   -1.1533    3.0843   N.am      1 RES1   0.0000
    21 C16      -2.5885   -1.5176    4.2415   C.3       1 RES1   0.0000
    22 C17      -2.6910   -3.0260    4.5071   C.3       1 RES1   0.0000
    23 C18      -2.5990   -3.4325    5.9808   C.3       1 RES1   0.0000
    24 C19      -1.1964   -3.3859    6.5877   C.3       1 RES1   0.0000
    25 C20      -0.8001   -2.0372    7.1804   C.3       1 RES1   0.0000
    26 C21       0.5648   -2.1183    7.8546   C.3       1 RES1   0.0000
    27 C22      -4.8327   -1.0934    3.3325   C.3       1 RES1   0.0000
    28 C23      -5.2767    0.3486    3.6088   C.3       1 RES1   0.0000
    29 C24      -6.7946    0.5206    3.7058   C.3       1 RES1   0.0000
    30 C25      -7.5383    0.5317    2.3649   C.3       1 RES1   0.0000
    31 C26      -7.7460    1.9197    1.7548   C.3       1 RES1   0.0000
    32 C27      -6.4729    2.5834    1.2439   C.3       1 RES1   0.0000
    33 H1       -8.2205    3.0870   -2.7725   H         1 RES1   0.0000
    34 H2       -9.5391    1.9494   -2.5044   H         1 RES1   0.0000
    35 H3       -8.7171    1.9949   -4.0606   H         1 RES1   0.0000
    36 H4       -7.4067    1.2214   -1.4265   H         1 RES1   0.0000
    37 H5       -6.6242    1.1936   -3.0130   H         1 RES1   0.0000
    38 H6       -8.3391   -0.5096   -3.7562   H         1 RES1   0.0000
    39 H7       -8.8756   -0.6131   -2.0856   H         1 RES1   0.0000
    40 H8       -6.0960   -1.2657   -3.1613   H         1 RES1   0.0000
    41 H9       -7.3053   -2.4140   -2.5861   H         1 RES1   0.0000
    42 H10      -7.2117   -1.3255   -0.3371   H         1 RES1   0.0000
    43 H11      -5.8684   -0.3218   -0.9110   H         1 RES1   0.0000
    44 H12      -5.7230   -3.3422   -1.0500   H         1 RES1   0.0000
    45 H13      -5.4531   -2.5637    0.4890   H         1 RES1   0.0000
    46 H14      -2.4889   -2.7453   -2.2687   H         1 RES1   0.0000
    47 H15      -4.1132   -2.7598   -2.9786   H         1 RES1   0.0000
    48 H16      -4.6266   -4.9150   -1.9235   H         1 RES1   0.0000
    49 H17      -3.2722   -4.7221   -0.8150   H         1 RES1   0.0000
    50 H18      -2.4481   -6.2865   -2.2490   H         1 RES1   0.0000
    51 H19      -1.8130   -4.8399   -3.0216   H         1 RES1   0.0000
    52 H20      -4.3274   -6.3599   -3.8512   H         1 RES1   0.0000
    53 H21      -2.7345   -6.5623   -4.5540   H         1 RES1   0.0000
    54 H22      -4.4141   -4.0285   -4.7141   H         1 RES1   0.0000
    55 H23      -4.1583   -5.2152   -5.9774   H         1 RES1   0.0000
    56 H24      -2.0472   -3.3581   -4.8022   H         1 RES1   0.0000
    57 H25      -2.6478   -3.4133   -6.4575   H         1 RES1   0.0000
    58 H26      -1.6643   -4.7340   -5.8441   H         1 RES1   0.0000
    59 H27      -4.7334   -0.5799    0.9374   H         1 RES1   0.0000
    60 H28      -3.4709    0.5546    0.4553   H         1 RES1   0.0000
    61 H29      -2.9443   -0.9476    5.1031   H         1 RES1   0.0000
    62 H30      -1.5615   -1.2297    4.0221   H         1 RES1   0.0000
    63 H31      -1.9258   -3.5462    3.9279   H         1 RES1   0.0000
    64 H32      -3.6577   -3.3749    4.1396   H         1 RES1   0.0000
    65 H33      -2.9613   -4.4599    6.0456   H         1 RES1   0.0000
    66 H34      -3.2713   -2.8172    6.5819   H         1 RES1   0.0000
    67 H35      -0.4673   -3.6847    5.8318   H         1 RES1   0.0000
    68 H36      -1.1594   -4.1193    7.3925   H         1 RES1   0.0000
    69 H37      -1.5399   -1.7388    7.9234   H         1 RES1   0.0000
    70 H38      -0.7877   -1.2714    6.4031   H         1 RES1   0.0000
    71 H39       0.5374   -2.8366    8.6690   H         1 RES1   0.0000
    72 H40       0.8607   -1.1556    8.2637   H         1 RES1   0.0000
    73 H41       1.3298   -2.4422    7.1511   H         1 RES1   0.0000
    74 H42      -5.0455   -1.6936    4.2158   H         1 RES1   0.0000
    75 H43      -5.4003   -1.5409    2.5165   H         1 RES1   0.0000
    76 H44      -4.8810    1.0090    2.8382   H         1 RES1   0.0000
    77 H45      -4.8453    0.6433    4.5677   H         1 RES1   0.0000
    78 H46      -6.9962    1.4614    4.2201   H         1 RES1   0.0000
    79 H47      -7.1925   -0.2808    4.3293   H         1 RES1   0.0000
    80 H48      -8.5264    0.0995    2.5213   H         1 RES1   0.0000
    81 H49      -7.0207   -0.0999    1.6407   H         1 RES1   0.0000
    82 H50      -8.2133    2.5718    2.4917   H         1 RES1   0.0000
    83 H51      -8.4391    1.8237    0.9171   H         1 RES1   0.0000
    84 H52      -5.8204    2.8765    2.0621   H         1 RES1   0.0000
    85 H53      -6.7213    3.4805    0.6807   H         1 RES1   0.0000
    86 H54      -5.9337    1.9057    0.5828   H         1 RES1   0.0000
    87 C28      -0.5937   -3.9625    1.0541   C.3       1 RES1   0.0000
    88 C29      -0.2474   -4.5895   -0.2923   C.3       1 RES1   0.0000
    89 C30       1.0873   -4.0857   -0.8291   C.3       1 RES1   0.0000
    90 C31       1.5990   -4.9034   -2.0222   C.3       1 RES1   0.0000
    91 C32       1.2949   -4.4464   -3.4641   C.3       1 RES1   0.0000
    92 C33       0.9630   -2.9848   -3.7783   C.3       1 RES1   0.0000
    93 N3        1.9355   -1.8857   -3.6279   N.am      1 RES1   0.0000
    94 C34       3.0600   -1.9405   -4.5835   C.3       1 RES1   0.0000
    95 C35       4.0505   -0.7635   -4.6780   C.3       1 RES1   0.0000
    96 C36       5.3488   -1.0224   -5.4573   C.3       1 RES1   0.0000
    97 C37       5.9529    0.2947   -5.9631   C.3       1 RES1   0.0000
    98 C38       6.3869    1.3113   -4.9013   C.3       1 RES1   0.0000
    99 C39       7.5666    0.8457   -4.0538   C.3       1 RES1   0.0000
   100 C40       1.5396   -0.8841   -2.8430   C.2       1 RES1   0.0000
   101 O3        0.5990   -1.0241   -2.0291   O.2       1 RES1   0.0000
   102 C41       2.1508    0.4989   -2.9471   C.3       1 RES1   0.0000
   103 C42       1.0647    1.5275   -2.8232   C.2       1 RES1   0.0000
   104 O4        0.4754    1.6648   -1.7322   O.2       1 RES1   0.0000
   105 N4        0.8245    2.3135   -3.8731   N.am      1 RES1   0.0000
   106 C43       0.1564    3.5695   -3.5805   C.3       1 RES1   0.0000
   107 C44       1.0935    4.5258   -2.8350   C.3       1 RES1   0.0000
   108 C45       2.2360    5.1349   -3.6581   C.3       1 RES1   0.0000
   109 C46       2.6001    6.5370   -3.1530   C.3       1 RES1   0.0000
   110 C47       3.1809    6.5499   -1.7379   C.3       1 RES1   0.0000
   111 C48       4.6911    6.3662   -1.7123   C.3       1 RES1   0.0000
   112 C49       1.3336    2.1017   -5.2234   C.3       1 RES1   0.0000
   113 C50       0.8815    0.7882   -5.8871   C.3       1 RES1   0.0000
   114 C51      -0.3312    0.9353   -6.8078   C.3       1 RES1   0.0000
   115 C52      -0.8376   -0.4392   -7.2491   C.3       1 RES1   0.0000
   116 C53      -1.8924   -0.3949   -8.3575   C.3       1 RES1   0.0000
   117 C54      -3.2284    0.1921   -7.9068   C.3       1 RES1   0.0000
   118 H55      -1.5824   -4.2879    1.3794   H         1 RES1   0.0000
   119 H56      -0.5907   -2.8646    0.9898   H         1 RES1   0.0000
   120 H57       0.1342   -4.2613    1.8090   H         1 RES1   0.0000
   121 H58      -1.0343   -4.3676   -1.0089   H         1 RES1   0.0000
   122 H59      -0.1920   -5.6739   -0.1663   H         1 RES1   0.0000
   123 H60       1.8227   -4.1917   -0.0267   H         1 RES1   0.0000
   124 H61       1.0077   -3.0166   -1.0482   H         1 RES1   0.0000
   125 H62       1.2083   -5.9187   -1.9179   H         1 RES1   0.0000
   126 H63       2.6764   -4.9915   -1.9044   H         1 RES1   0.0000
   127 H64       0.4053   -4.9752   -3.8160   H         1 RES1   0.0000
   128 H65       2.1143   -4.7802   -4.1028   H         1 RES1   0.0000
   129 H66       0.1033   -2.7026   -3.1733   H         1 RES1   0.0000
   130 H67       0.6583   -2.9678   -4.8308   H         1 RES1   0.0000
   131 H68       2.6323   -2.1026   -5.5799   H         1 RES1   0.0000
   132 H69       3.6115   -2.8469   -4.3310   H         1 RES1   0.0000
   133 H70       4.3378   -0.4285   -3.6812   H         1 RES1   0.0000
   134 H71       3.5815    0.0544   -5.2292   H         1 RES1   0.0000
   135 H72       5.1552   -1.6524   -6.3253   H         1 RES1   0.0000
   136 H73       6.0879   -1.5245   -4.8374   H         1 RES1   0.0000
   137 H74       5.2330    0.7825   -6.6243   H         1 RES1   0.0000
   138 H75       6.8280    0.0478   -6.5610   H         1 RES1   0.0000
   139 H76       5.5459    1.5797   -4.2546   H         1 RES1   0.0000
   140 H77       6.6878    2.2226   -5.4227   H         1 RES1   0.0000
   141 H78       7.3187   -0.0445   -3.4795   H         1 RES1   0.0000
   142 H79       7.8711    1.6246   -3.3564   H         1 RES1   0.0000
   143 H80       8.4193    0.6205   -4.6895   H         1 RES1   0.0000
   144 H81       2.6993    0.6799   -3.8483   H         1 RES1   0.0000
   145 H82       2.8113    0.6444   -2.0910   H         1 RES1   0.0000
   146 H83      -0.6980    3.3635   -2.9332   H         1 RES1   0.0000
   147 H84      -0.2081    4.0120   -4.5057   H         1 RES1   0.0000
   148 H85       1.4913    3.9987   -1.9632   H         1 RES1   0.0000
   149 H86       0.4800    5.3502   -2.4758   H         1 RES1   0.0000
   150 H87       1.9315    5.2215   -4.7019   H         1 RES1   0.0000
   151 H88       3.1207    4.4960   -3.6264   H         1 RES1   0.0000
   152 H89       1.7027    7.1588   -3.1713   H         1 RES1   0.0000
   153 H90       3.3196    6.9887   -3.8359   H         1 RES1   0.0000
   154 H91       2.7045    5.7582   -1.1559   H         1 RES1   0.0000
   155 H92       2.9443    7.5030   -1.2642   H         1 RES1   0.0000
   156 H93       4.9812    5.4216   -2.1637   H         1 RES1   0.0000
   157 H94       5.0570    6.3793   -0.6896   H         1 RES1   0.0000
   158 H95       5.1808    7.1716   -2.2519   H         1 RES1   0.0000
   159 H96       2.4260    2.1740   -5.2272   H         1 RES1   0.0000
   160 H97       0.9700    2.9340   -5.8259   H         1 RES1   0.0000
   161 H98       0.6647    0.0355   -5.1278   H         1 RES1   0.0000
   162 H99       1.7060    0.4185   -6.4970   H         1 RES1   0.0000
   163 H100     -0.0421    1.5032   -7.6920   H         1 RES1   0.0000
   164 H101     -1.1263    1.4820   -6.3029   H         1 RES1   0.0000
   165 H102     -1.2471   -0.9823   -6.3934   H         1 RES1   0.0000
   166 H103      0.0065   -1.0197   -7.6217   H         1 RES1   0.0000
   167 H104     -2.0590   -1.4160   -8.7151   H         1 RES1   0.0000
   168 H105     -1.5126    0.1887   -9.1991   H         1 RES1   0.0000
   169 H106     -3.6067   -0.3404   -7.0316   H         1 RES1   0.0000
   170 H107     -3.9617    0.0943   -8.7060   H         1 RES1   0.0000
   171 H108     -3.1301    1.2538   -7.6742   H         1 RES1   0.0000
   172 C55      -2.1932    0.3029   -3.4907   C.3       1 RES1   0.0000
   173 C56      -3.6988    0.4614   -3.6768   C.3       1 RES1   0.0000
   174 C57      -4.0773    1.6922   -4.5016   C.3       1 RES1   0.0000
   175 C58      -3.7056    3.0439   -3.8929   C.3       1 RES1   0.0000
   176 C59      -4.4471    3.3948   -2.5994   C.3       1 RES1   0.0000
   177 C60      -3.7178    3.0245   -1.3086   C.3       1 RES1   0.0000
   178 N5       -2.5692    3.8575   -0.9052   N.am      1 RES1   0.0000
   179 C61      -2.8294    5.2965   -0.8267   C.3       1 RES1   0.0000
   180 C62      -2.1387    6.2692   -1.8043   C.3       1 RES1   0.0000
   181 C63      -2.5979    6.1749   -3.2628   C.3       1 RES1   0.0000
   182 C64      -2.3374    7.4269   -4.1114   C.3       1 RES1   0.0000
   183 C65      -0.9244    7.6011   -4.6671   C.3       1 RES1   0.0000
   184 C66      -0.6531    6.7611   -5.9103   C.3       1 RES1   0.0000
   185 C67      -1.6099    3.2253   -0.1969   C.2       1 RES1   0.0000
   186 O5       -1.6396    1.9916   -0.0463   O.2       1 RES1   0.0000
   187 C68      -0.5351    4.0969    0.4533   C.3       1 RES1   0.0000
   188 C69       0.6392    3.3398    1.0619   C.2       1 RES1   0.0000
   189 O6        0.7114    2.0977    1.0157   O.2       1 RES1   0.0000
   190 N6        1.5924    4.0296    1.7032   N.am      1 RES1   0.0000
   191 C70       2.6743    3.2127    2.2730   C.3       1 RES1   0.0000
   192 C71       3.5832    2.5038    1.2694   C.3       1 RES1   0.0000
   193 C72       4.3287    3.4345    0.3096   C.3       1 RES1   0.0000
   194 C73       5.8201    3.0991    0.1763   C.3       1 RES1   0.0000
   195 C74       6.1499    1.6247   -0.0538   C.3       1 RES1   0.0000
   196 C75       5.3450    0.9960   -1.1798   C.3       1 RES1   0.0000
   197 C76       1.8820    5.4745    1.7581   C.3       1 RES1   0.0000
   198 C77       0.8595    6.6144    1.8963   C.3       1 RES1   0.0000
   199 C78       0.1933    6.8250    3.2624   C.3       1 RES1   0.0000
   200 C79      -1.1459    6.1221    3.4502   C.3       1 RES1   0.0000
   201 C80      -1.8431    6.4987    4.7621   C.3       1 RES1   0.0000
   202 C81      -1.0486    6.1613    6.0205   C.3       1 RES1   0.0000
   203 H109     -1.9552   -0.6697   -3.0663   H         1 RES1   0.0000
   204 H110     -1.7865    1.0553   -2.8144   H         1 RES1   0.0000
   205 H111     -1.6982    0.3866   -4.4533   H         1 RES1   0.0000
   206 H112     -4.1932    0.4886   -2.7042   H         1 RES1   0.0000
   207 H113     -4.0784   -0.4126   -4.2117   H         1 RES1   0.0000
   208 H114     -5.1513    1.6727   -4.6976   H         1 RES1   0.0000
   209 H115     -3.5781    1.6148   -5.4681   H         1 RES1   0.0000
   210 H116     -3.9390    3.8035   -4.6415   H         1 RES1   0.0000
   211 H117     -2.6332    3.0719   -3.7102   H         1 RES1   0.0000
   212 H118     -5.4037    2.8712   -2.5843   H         1 RES1   0.0000
   213 H119     -4.6839    4.4561   -2.5996   H         1 RES1   0.0000
   214 H120     -3.3444    2.0047   -1.3871   H         1 RES1   0.0000
   215 H121     -4.4372    3.0714   -0.4838   H         1 RES1   0.0000
   216 H122     -2.5943    5.6362    0.1852   H         1 RES1   0.0000
   217 H123     -3.9052    5.4167   -0.9600   H         1 RES1   0.0000
   218 H124     -1.0540    6.1849   -1.7347   H         1 RES1   0.0000
   219 H125     -2.3970    7.2658   -1.4359   H         1 RES1   0.0000
   220 H126     -3.6790    6.0463   -3.2649   H         1 RES1   0.0000
   221 H127     -2.1553    5.3033   -3.7408   H         1 RES1   0.0000
   222 H128     -2.5968    8.3108   -3.5267   H         1 RES1   0.0000
   223 H129     -3.0203    7.3922   -4.9617   H         1 RES1   0.0000
   224 H130     -0.1862    7.3798   -3.8961   H         1 RES1   0.0000
   225 H131     -0.8063    8.6479   -4.9456   H         1 RES1   0.0000
   226 H132     -0.8629    5.7067   -5.7399   H         1 RES1   0.0000
   227 H133      0.3848    6.8633   -6.2194   H         1 RES1   0.0000
   228 H134     -1.2800    7.0955   -6.7331   H         1 RES1   0.0000
   229 H135     -1.0132    4.6569    1.2607   H         1 RES1   0.0000
   230 H136     -0.1532    4.8186   -0.2640   H         1 RES1   0.0000
   231 H137      2.2261    2.4275    2.8763   H         1 RES1   0.0000
   232 H138      3.2790    3.8415    2.9291   H         1 RES1   0.0000
   233 H139      2.9984    1.7538    0.7240   H         1 RES1   0.0000
   234 H140      4.3146    1.9655    1.8705   H         1 RES1   0.0000
   235 H141      4.2740    4.4590    0.6795   H         1 RES1   0.0000
   236 H142      3.8459    3.4132   -0.6690   H         1 RES1   0.0000
   237 H143      6.3315    3.4193    1.0845   H         1 RES1   0.0000
   238 H144      6.2320    3.6853   -0.6468   H         1 RES1   0.0000
   239 H145      5.9812    1.0523    0.8611   H         1 RES1   0.0000
   240 H146      7.2134    1.5492   -0.2788   H         1 RES1   0.0000
   241 H147      4.3288    0.8008   -0.8468   H         1 RES1   0.0000
   242 H148      5.7941    0.0548   -1.4838   H         1 RES1   0.0000
   243 H149      5.3136    1.6608   -2.0374   H         1 RES1   0.0000
   244 H150      2.4594    5.7028    0.8553   H         1 RES1   0.0000
   245 H151      2.5446    5.6041    2.6190   H         1 RES1   0.0000
   246 H152      0.1075    6.6062    1.1114   H         1 RES1   0.0000
   247 H153      1.4790    7.5026    1.7247   H         1 RES1   0.0000
   248 H154     -0.0055    7.8921    3.3663   H         1 RES1   0.0000
   249 H155      0.8839    6.5360    4.0549   H         1 RES1   0.0000
   250 H156     -1.0066    5.0413    3.4173   H         1 RES1   0.0000
   251 H157     -1.8178    6.4130    2.6362   H         1 RES1   0.0000
   252 H158     -2.8035    5.9773    4.8028   H         1 RES1   0.0000
   253 H159     -2.0548    7.5695    4.7587   H         1 RES1   0.0000
   254 H160     -0.7526    5.1129    6.0351   H         1 RES1   0.0000
   255 H161     -1.6595    6.3572    6.8998   H         1 RES1   0.0000
   256 H162     -0.1532    6.7731    6.1002   H         1 RES1   0.0000
   257 C82      -2.2321    2.2972    3.7265   C.3       1 RES1   0.0000
   258 C83      -1.2339    2.2011    4.8761   C.3       1 RES1   0.0000
   259 C84       0.1704    2.5034    4.3666   C.3       1 RES1   0.0000
   260 C85       1.2978    2.1960    5.3470   C.3       1 RES1   0.0000
   261 C86       1.4776    0.7171    5.6908   C.3       1 RES1   0.0000
   262 C87       1.4713   -0.3012    4.5471   C.3       1 RES1   0.0000
   263 N7        2.6892   -0.4780    3.7474   N.am      1 RES1   0.0000
   264 C88       3.9117   -0.7869    4.4872   C.3       1 RES1   0.0000
   265 C89       5.0892    0.1930    4.3283   C.3       1 RES1   0.0000
   266 C90       4.9922    1.4795    5.1489   C.3       1 RES1   0.0000
   267 C91       6.3510    2.1719    5.3033   C.3       1 RES1   0.0000
   268 C92       6.8965    2.8899    4.0669   C.3       1 RES1   0.0000
   269 C93       6.2775    4.2665    3.8532   C.3       1 RES1   0.0000
   270 C94       2.5494   -0.7390    2.4362   C.2       1 RES1   0.0000
   271 O7        1.4827   -0.5414    1.8207   O.2       1 RES1   0.0000
   272 C95       3.7599   -1.3832    1.7783   C.3       1 RES1   0.0000
   273 C96       3.7157   -1.6259    0.2831   C.2       1 RES1   0.0000
   274 O8        2.7735   -1.2458   -0.4202   O.2       1 RES1   0.0000
   275 N8        4.7744   -2.3112   -0.1914   N.am      1 RES1   0.0000
   276 C97       4.6954   -2.7853   -1.5768   C.3       1 RES1   0.0000
   277 C98       5.6543   -3.9214   -1.9745   C.3       1 RES1   0.0000
   278 C99       5.0765   -4.7911   -3.1124   C.3       1 RES1   0.0000
   279 C100      5.6223   -4.5221   -4.5150   C.3       1 RES1   0.0000
   280 C101      4.8113   -5.2668   -5.5832   C.3       1 RES1   0.0000
   281 C102      4.9850   -4.6586   -6.9669   C.3       1 RES1   0.0000
   282 C103      6.0202   -2.5246    0.5369   C.3       1 RES1   0.0000
   283 C104      6.0428   -3.6775    1.5647   C.3       1 RES1   0.0000
   284 C105      5.0758   -4.8327    1.2838   C.3       1 RES1   0.0000
   285 C106      4.6317   -5.4841    2.5944   C.3       1 RES1   0.0000
   286 C107      4.2329   -6.9522    2.4563   C.3       1 RES1   0.0000
   287 C108      3.0418   -7.2057    1.5364   C.3       1 RES1   0.0000
   288 H163     -3.2332    2.0548    4.0668   H         1 RES1   0.0000
   289 H164     -1.9552    1.6107    2.9236   H         1 RES1   0.0000
   290 H165     -2.2534    3.3020    3.3108   H         1 RES1   0.0000
   291 H166     -1.2774    1.1934    5.2919   H         1 RES1   0.0000
   292 H167     -1.5031    2.9011    5.6687   H         1 RES1   0.0000
   293 H168      0.2328    3.5627    4.1085   H         1 RES1   0.0000
   294 H169      0.3019    1.9399    3.4407   H         1 RES1   0.0000
   295 H170      1.1191    2.7408    6.2773   H         1 RES1   0.0000
   296 H171      2.2292    2.5815    4.9411   H         1 RES1   0.0000
   297 H172      0.6465    0.4374    6.3342   H         1 RES1   0.0000
   298 H173      2.3891    0.6157    6.2784   H         1 RES1   0.0000
   299 H174      0.6749   -0.0711    3.8412   H         1 RES1   0.0000
   300 H175      1.2633   -1.2836    4.9884   H         1 RES1   0.0000
   301 H176      4.2602   -1.7877    4.2128   H         1 RES1   0.0000
   302 H177      3.6494   -0.8256    5.5441   H         1 RES1   0.0000
   303 H178      5.2356    0.4628    3.2833   H         1 RES1   0.0000
   304 H179      5.9863   -0.3420    4.6496   H         1 RES1   0.0000
   305 H180      4.6438    1.2344    6.1526   H         1 RES1   0.0000
   306 H181      4.2681    2.1606    4.7009   H         1 RES1   0.0000
   307 H182      7.0818    1.4277    5.6225   H         1 RES1   0.0000
   308 H183      6.2707    2.9032    6.1062   H         1 RES1   0.0000
   309 H184      6.7613    2.2722    3.1767   H         1 RES1   0.0000
   310 H185      7.9690    3.0296    4.2071   H         1 RES1   0.0000
   311 H186      5.1974    4.2082    3.7401   H         1 RES1   0.0000
   312 H187      6.6903    4.7432    2.9665   H         1 RES1   0.0000
   313 H188      6.4915    4.9077    4.7038   H         1 RES1   0.0000
   314 H189      3.8606   -2.3710    2.2342   H         1 RES1   0.0000
   315 H190      4.6604   -0.8241    2.0091   H         1 RES1   0.0000
   316 H191      4.8346   -1.9340   -2.2494   H         1 RES1   0.0000
   317 H192      3.6668   -3.1272   -1.6947   H         1 RES1   0.0000
   318 H193      6.6159   -3.5279   -2.3040   H         1 RES1   0.0000
   319 H194      5.8438   -4.5738   -1.1258   H         1 RES1   0.0000
   320 H195      4.0063   -4.6159   -3.1561   H         1 RES1   0.0000
   321 H196      5.2120   -5.8486   -2.8759   H         1 RES1   0.0000
   322 H197      6.6665   -4.8333   -4.5740   H         1 RES1   0.0000
   323 H198      5.5700   -3.4549   -4.7221   H         1 RES1   0.0000
   324 H199      3.7462   -5.2632   -5.3371   H         1 RES1   0.0000
   325 H200      5.1152   -6.3103   -5.6111   H         1 RES1   0.0000
   326 H201      4.5205   -3.6767   -7.0238   H         1 RES1   0.0000
   327 H202      4.5103   -5.2844   -7.7171   H         1 RES1   0.0000
   328 H203      6.0395   -4.5621   -7.2060   H         1 RES1   0.0000
   329 H204      6.3212   -1.6069    1.0493   H         1 RES1   0.0000
   330 H205      6.7901   -2.7093   -0.2076   H         1 RES1   0.0000
   331 H206      5.8359   -3.2838    2.5618   H         1 RES1   0.0000
   332 H207      7.0618   -4.0673    1.6013   H         1 RES1   0.0000
   333 H208      5.5561   -5.5881    0.6620   H         1 RES1   0.0000
   334 H209      4.2021   -4.4722    0.7385   H         1 RES1   0.0000
   335 H210      3.8013   -4.9123    3.0181   H         1 RES1   0.0000
   336 H211      5.4585   -5.4390    3.3043   H         1 RES1   0.0000
   337 H212      3.9917   -7.3276    3.4522   H         1 RES1   0.0000
   338 H213      5.0949   -7.5167    2.0919   H         1 RES1   0.0000
   339 H214      2.1582   -6.6553    1.8617   H         1 RES1   0.0000
   340 H215      2.7948   -8.2651    1.5551   H         1 RES1   0.0000
   341 H216      3.2728   -6.9284    0.5088   H         1 RES1   0.0000
@<TRIPOS>BOND
     1     1    16    1
     2     1    19    1
     3     1   101    1
     4     1   104    1
     5     1   186    1
     6     1   189    1
     7     1   271    1
     8     1   274    1
     9     2     3    1
    10     2    33    1
    11     2    34    1
    12     2    35    1
    13     3     4    1
    14     3    36    1
    15     3    37    1
    16     4     5    1
    17     4    38    1
    18     4    39    1
    19     5     6    1
    20     5    40    1
    21     5    41    1
    22     6     7    1
    23     6    42    1
    24     6    43    1
    25     7     8    1
    26     7    44    1
    27     7    45    1
    28     8     9    1
    29     8    15    1
    30     9    10    1
    31     9    46    1
    32     9    47    1
    33    10    11    1
    34    10    48    1
    35    10    49    1
    36    11    12    1
    37    11    50    1
    38    11    51    1
    39    12    13    1
    40    12    52    1
    41    12    53    1
    42    13    14    1
    43    13    54    1
    44    13    55    1
    45    14    56    1
    46    14    57    1
    47    14    58    1
    48    15    16    2
    49    15    17    1
    50    17    18    1
    51    17    59    1
    52    17    60    1
    53    18    19    2
    54    18    20    1
    55    20    21    1
    56    20    27    1
    57    21    22    1
    58    21    61    1
    59    21    62    1
    60    22    23    1
    61    22    63    1
    62    22    64    1
    63    23    24    1
    64    23    65    1
    65    23    66    1
    66    24    25    1
    67    24    67    1
    68    24    68    1
    69    25    26    1
    70    25    69    1
    71    25    70    1
    72    26    71    1
    73    26    72    1
    74    26    73    1
    75    27    28    1
    76    27    74    1
    77    27    75    1
    78    28    29    1
    79    28    76    1
    80    28    77    1
    81    29    30    1
    82    29    78    1
    83    29    79    1
    84    30    31    1
    85    30    80    1
    86    30    81    1
    87    31    32    1
    88    31    82    1
    89    31    83    1
    90    32    84    1
    91    32    85    1
    92    32    86    1
    93    87    88    1
    94    87   118    1
    95    87   119    1
    96    87   120    1
    97    88    89    1
    98    88   121    1
    99    88   122    1
   100    89    90    1
   101    89   123    1
   102    89   124    1
   103    90    91    1
   104    90   125    1
   105    90   126    1
   106    91    92    1
   107    91   127    1
   108    91   128    1
   109    92    93    1
   110    92   129    1
   111    92   130    1
   112    93    94    1
   113    93   100    1
   114    94    95    1
   115    94   131    1
   116    94   132    1
   117    95    96    1
   118    95   133    1
   119    95   134    1
   120    96    97    1
   121    96   135    1
   122    96   136    1
   123    97    98    1
   124    97   137    1
   125    97   138    1
   126    98    99    1
   127    98   139    1
   128    98   140    1
   129    99   141    1
   130    99   142    1
   131    99   143    1
   132   100   101    2
   133   100   102    1
   134   102   103    1
   135   102   144    1
   136   102   145    1
   137   103   104    2
   138   103   105    1
   139   105   106    1
   140   105   112    1
   141   106   107    1
   142   106   146    1
   143   106   147    1
   144   107   108    1
   145   107   148    1
   146   107   149    1
   147   108   109    1
   148   108   150    1
   149   108   151    1
   150   109   110    1
   151   109   152    1
   152   109   153    1
   153   110   111    1
   154   110   154    1
   155   110   155    1
   156   111   156    1
   157   111   157    1
   158   111   158    1
   159   112   113    1
   160   112   159    1
   161   112   160    1
   162   113   114    1
   163   113   161    1
   164   113   162    1
   165   114   115    1
   166   114   163    1
   167   114   164    1
   168   115   116    1
   169   115   165    1
   170   115   166    1
   171   116   117    1
   172   116   167    1
   173   116   168    1
   174   117   169    1
   175   117   170    1
   176   117   171    1
   177   172   173    1
   178   172   203    1
   179   172   204    1
   180   172   205    1
   181   173   174    1
   182   173   206    1
   183   173   207    1
   184   174   175    1
   185   174   208    1
   186   174   209    1
   187   175   176    1
   188   175   210    1
   189   175   211    1
   190   176   177    1
   191   176   212    1
   192   176   213    1
   193   177   178    1
   194   177   214    1
   195   177   215    1
   196   178   179    1
   197   178   185    1
   198   179   180    1
   199   179   216    1
   200   179   217    1
   201   180   181    1
   202   180   218    1
   203   180   219    1
   204   181   182    1
   205   181   220    1
   206   181   221    1
   207   182   183    1
   208   182   222    1
   209   182   223    1
   210   183   184    1
   211   183   224    1
   212   183   225    1
   213   184   226    1
   214   184   227    1
   215   184   228    1
   216   185   186    2
   217   185   187    1
   218   187   188    1
   219   187   229    1
   220   187   230    1
   221   188   189    2
   222   188   190    1
   223   190   191    1
   224   190   197    1
   225   191   192    1
   226   191   231    1
   227   191   232    1
   228   192   193    1
   229   192   233    1
   230   192   234    1
   231   193   194    1
   232   193   235    1
   233   193   236    1
   234   194   195    1
   235   194   237    1
   236   194   238    1
   237   195   196    1
   238   195   239    1
   239   195   240    1
   240   196   241    1
   241   196   242    1
   242   196   243    1
   243   197   198    1
   244   197   244    1
   245   197   245    1
   246   198   199    1
   247   198   246    1
   248   198   247    1
   249   199   200    1
   250   199   248    1
   251   199   249    1
   252   200   201    1
   253   200   250    1
   254   200   251    1
   255   201   202    1
   256   201   252    1
   257   201   253    1
   258   202   254    1
   259   202   255    1
   260   202   256    1
   261   257   258    1
   262   257   288    1
   263   257   289    1
   264   257   290    1
   265   258   259    1
   266   258   291    1
   267   258   292    1
   268   259   260    1
   269   259   293    1
   270   259   294    1
   271   260   261    1
   272   260   295    1
   273   260   296    1
   274   261   262    1
   275   261   297    1
   276   261   298    1
   277   262   263    1
   278   262   299    1
   279   262   300    1
   280   263   264    1
   281   263   270    1
   282   264   265    1
   283   264   301    1
   284   264   302    1
   285   265   266    1
   286   265   303    1
   287   265   304    1
   288   266   267    1
   289   266   305    1
   290   266   306    1
   291   267   268    1
   292   267   307    1
   293   267   308    1
   294   268   269    1
   295   268   309    1
   296   268   310    1
   297   269   311    1
   298   269   312    1
   299   269   313    1
   300   270   271    2
   301   270   272    1
   302   272   273    1
   303   272   314    1
   304   272   315    1
   305   273   274    2
   306   273   275    1
   307   275   276    1
   308   275   282    1
   309   276   277    1
   310   276   316    1
   311   276   317    1
   312   277   278    1
   313   277   318    1
   314   277   319    1
   315   278   279    1
   316   278   320    1
   317   278   321    1
   318   279   280    1
   319   279   322    1
   320   279   323    1
   321   280   281    1
   322   280   324    1
   323   280   325    1
   324   281   326    1
   325   281   327    1
   326   281   328    1
   327   282   283    1
   328   282   329    1
   329   282   330    1
   330   283   284    1
   331   283   331    1
   332   283   332    1
   333   284   285    1
   334   284   333    1
   335   284   334    1
   336   285   286    1
   337   285   335    1
   338   285   336    1
   339   286   287    1
   340   286   337    1
   341   286   338    1
   342   287   339    1
   343   287   340    1
   344   287   341    1
@<TRIPOS>SUBSTRUCTURE
     1 RES1      341 GROUP             0 ****  ****    0  
