@<TRIPOS>MOLECULE
ICIGOT_geomtry_0_nunpairedes_0_charge_3 Charge: 3 Unpaired_Electrons: 3 XTB_Unpaired_Electrons: 0 XTB_Charge: 3
   157   168     1     0     0
SMALL
NoCharges
****
Generated from Architector

@<TRIPOS>ATOM
     1 Er1      -0.1028   -0.0045    0.0984   Er        1 RES1   0.0000
     2 C1       -3.1617    0.7735   -5.0449   C.3       1 RES1   0.0000
     3 N1       -2.1677    1.2190   -4.0794   N.am      1 RES1   0.0000
     4 C2       -1.7986    0.4463   -3.0461   C.2       1 RES1   0.0000
     5 O1       -1.1107    0.8362   -2.0930   O.2       1 RES1   0.0000
     6 C3       -2.1662   -1.0429   -3.1085   C.3       1 RES1   0.0000
     7 C4       -2.5652   -1.5965   -1.7440   C.2       1 RES1   0.0000
     8 O2       -1.6978   -1.6562   -0.8458   O.2       1 RES1   0.0000
     9 N2       -3.8189   -2.0398   -1.6069   N.am      1 RES1   0.0000
    10 C5       -4.8638   -1.7594   -2.5870   C.3       1 RES1   0.0000
    11 C6       -4.2718   -2.7744   -0.4611   C.ar      1 RES1   0.0000
    12 C7       -5.1650   -3.8274   -0.6452   C.ar      1 RES1   0.0000
    13 C8       -5.7131   -4.4677    0.4525   C.ar      1 RES1   0.0000
    14 C9       -5.3562   -4.0823    1.7346   C.ar      1 RES1   0.0000
    15 C10      -4.4258   -3.0748    1.9094   C.ar      1 RES1   0.0000
    16 C11      -3.8912   -2.4091    0.8197   C.ar      1 RES1   0.0000
    17 C12      -1.6219    2.5186   -4.3157   C.ar      1 RES1   0.0000
    18 C13      -1.5927    3.0078   -5.6199   C.ar      1 RES1   0.0000
    19 C14      -1.1294    4.2835   -5.8879   C.ar      1 RES1   0.0000
    20 C15      -0.6609    5.0873   -4.8606   C.ar      1 RES1   0.0000
    21 C16      -0.6501    4.5926   -3.5685   C.ar      1 RES1   0.0000
    22 C17      -1.1302    3.3214   -3.2944   C.ar      1 RES1   0.0000
    23 H1       -3.9870    0.2723   -4.5488   H         1 RES1   0.0000
    24 H2       -2.7433    0.1102   -5.8030   H         1 RES1   0.0000
    25 H3       -3.5823    1.6424   -5.5410   H         1 RES1   0.0000
    26 H4       -1.2067   -1.5121   -3.3410   H         1 RES1   0.0000
    27 H5       -2.8488   -1.3168   -3.9013   H         1 RES1   0.0000
    28 H6       -4.7870   -0.7349   -2.9509   H         1 RES1   0.0000
    29 H7       -5.8242   -1.8696   -2.0836   H         1 RES1   0.0000
    30 H8       -4.8368   -2.4553   -3.4302   H         1 RES1   0.0000
    31 H9       -5.4456   -4.1507   -1.6350   H         1 RES1   0.0000
    32 H10      -6.4330   -5.2528    0.2994   H         1 RES1   0.0000
    33 H11      -5.8105   -4.5469    2.5934   H         1 RES1   0.0000
    34 H12      -4.1457   -2.7778    2.9065   H         1 RES1   0.0000
    35 H13      -3.1964   -1.5970    0.9562   H         1 RES1   0.0000
    36 H14      -1.9176    2.4003   -6.4460   H         1 RES1   0.0000
    37 H15      -1.1505    4.6450   -6.9034   H         1 RES1   0.0000
    38 H16      -0.3173    6.0891   -5.0622   H         1 RES1   0.0000
    39 H17      -0.2765    5.2130   -2.7641   H         1 RES1   0.0000
    40 H18      -1.1149    2.9489   -2.2876   H         1 RES1   0.0000
    41 C18       0.8642    5.3422    2.5123   C.3       1 RES1   0.0000
    42 N3        0.8697    3.8864    2.4660   N.am      1 RES1   0.0000
    43 C19       0.6176    3.2010    1.3458   C.2       1 RES1   0.0000
    44 O3        0.8631    1.9887    1.1955   O.2       1 RES1   0.0000
    45 C20      -0.0719    3.9099    0.1904   C.3       1 RES1   0.0000
    46 C21      -1.4629    3.2664    0.0374   C.2       1 RES1   0.0000
    47 O4       -1.5405    2.0299    0.1417   O.2       1 RES1   0.0000
    48 N4       -2.5005    4.0678   -0.2561   N.am      1 RES1   0.0000
    49 C22      -2.4599    5.5058   -0.0025   C.3       1 RES1   0.0000
    50 C23      -3.6960    3.5901   -0.8855   C.ar      1 RES1   0.0000
    51 C24      -4.4404    4.4879   -1.6521   C.ar      1 RES1   0.0000
    52 C25      -5.6274    4.0987   -2.2449   C.ar      1 RES1   0.0000
    53 C26      -6.0932    2.8029   -2.0910   C.ar      1 RES1   0.0000
    54 C27      -5.3350    1.8971   -1.3712   C.ar      1 RES1   0.0000
    55 C28      -4.1415    2.2757   -0.7753   C.ar      1 RES1   0.0000
    56 C29       1.2068    3.2237    3.6916   C.ar      1 RES1   0.0000
    57 C30       2.2789    3.6674    4.4572   C.ar      1 RES1   0.0000
    58 C31       2.5560    3.0754    5.6779   C.ar      1 RES1   0.0000
    59 C32       1.7628    2.0417    6.1457   C.ar      1 RES1   0.0000
    60 C33       0.6731    1.6238    5.3979   C.ar      1 RES1   0.0000
    61 C34       0.3935    2.2040    4.1709   C.ar      1 RES1   0.0000
    62 H19      -0.0949    5.7630    2.2153   H         1 RES1   0.0000
    63 H20       1.6475    5.7589    1.8764   H         1 RES1   0.0000
    64 H21       1.0477    5.6572    3.5358   H         1 RES1   0.0000
    65 H22       0.4541    3.6178   -0.7258   H         1 RES1   0.0000
    66 H23      -0.0766    4.9885    0.2461   H         1 RES1   0.0000
    67 H24      -1.8602    5.7320    0.8763   H         1 RES1   0.0000
    68 H25      -3.4735    5.8503    0.2057   H         1 RES1   0.0000
    69 H26      -2.0703    6.0649   -0.8561   H         1 RES1   0.0000
    70 H27      -4.1080    5.5007   -1.8015   H         1 RES1   0.0000
    71 H28      -6.1911    4.8253   -2.8053   H         1 RES1   0.0000
    72 H29      -7.0447    2.5115   -2.5033   H         1 RES1   0.0000
    73 H30      -5.6969    0.8894   -1.2283   H         1 RES1   0.0000
    74 H31      -3.5760    1.5399   -0.2252   H         1 RES1   0.0000
    75 H32       2.8994    4.4803    4.1156   H         1 RES1   0.0000
    76 H33       3.3842    3.4348    6.2672   H         1 RES1   0.0000
    77 H34       1.9750    1.5853    7.1006   H         1 RES1   0.0000
    78 H35       0.0183    0.8651    5.8016   H         1 RES1   0.0000
    79 H36      -0.4680    1.8836    3.5987   H         1 RES1   0.0000
    80 C35       2.0094   -2.2851    5.2013   C.3       1 RES1   0.0000
    81 N5        2.0099   -1.2958    4.1330   N.am      1 RES1   0.0000
    82 C36       1.0530   -1.2399    3.1963   C.2       1 RES1   0.0000
    83 O5        1.0486   -0.4458    2.2495   O.2       1 RES1   0.0000
    84 C37      -0.1654   -2.1941    3.2194   C.3       1 RES1   0.0000
    85 C38      -1.3716   -1.2936    2.9807   C.2       1 RES1   0.0000
    86 O6       -1.4708   -0.7772    1.8453   O.2       1 RES1   0.0000
    87 N6       -2.2395   -1.0836    3.9778   N.am      1 RES1   0.0000
    88 C39      -1.9930   -1.6190    5.3136   C.3       1 RES1   0.0000
    89 C40      -3.5006   -0.4275    3.7749   C.ar      1 RES1   0.0000
    90 C41      -3.6954    0.5170    2.7705   C.ar      1 RES1   0.0000
    91 C42      -4.9588    1.0401    2.5421   C.ar      1 RES1   0.0000
    92 C43      -6.0331    0.6690    3.3315   C.ar      1 RES1   0.0000
    93 C44      -5.8269   -0.2096    4.3791   C.ar      1 RES1   0.0000
    94 C45      -4.5793   -0.7689    4.5921   C.ar      1 RES1   0.0000
    95 C46       3.1137   -0.3720    4.1723   C.ar      1 RES1   0.0000
    96 C47       4.0433   -0.4694    5.2090   C.ar      1 RES1   0.0000
    97 C48       5.1089    0.4078    5.3034   C.ar      1 RES1   0.0000
    98 C49       5.2793    1.4118    4.3674   C.ar      1 RES1   0.0000
    99 C50       4.3532    1.5292    3.3493   C.ar      1 RES1   0.0000
   100 C51       3.2887    0.6507    3.2410   C.ar      1 RES1   0.0000
   101 H37       1.2344   -3.0325    5.0923   H         1 RES1   0.0000
   102 H38       1.8760   -1.7938    6.1667   H         1 RES1   0.0000
   103 H39       2.9572   -2.8226    5.2019   H         1 RES1   0.0000
   104 H40      -0.2828   -2.8568    4.0659   H         1 RES1   0.0000
   105 H41      -0.0691   -2.8015    2.3102   H         1 RES1   0.0000
   106 H42      -0.9329   -1.5836    5.5544   H         1 RES1   0.0000
   107 H43      -2.3485   -2.6498    5.4027   H         1 RES1   0.0000
   108 H44      -2.5150   -1.0021    6.0446   H         1 RES1   0.0000
   109 H45      -2.8714    0.8556    2.1582   H         1 RES1   0.0000
   110 H46      -5.1032    1.7559    1.7488   H         1 RES1   0.0000
   111 H47      -7.0165    1.0697    3.1482   H         1 RES1   0.0000
   112 H48      -6.6395   -0.4593    5.0410   H         1 RES1   0.0000
   113 H49      -4.4689   -1.4776    5.3956   H         1 RES1   0.0000
   114 H50       3.9710   -1.2160    5.9781   H         1 RES1   0.0000
   115 H51       5.7934    0.3058    6.1286   H         1 RES1   0.0000
   116 H52       6.1093    2.0948    4.4328   H         1 RES1   0.0000
   117 H53       4.4488    2.3274    2.6279   H         1 RES1   0.0000
   118 H54       2.6061    0.7985    2.4238   H         1 RES1   0.0000
   119 C52       3.4883   -4.7030   -0.6123   C.3       1 RES1   0.0000
   120 N7        3.2133   -3.3788   -0.0772   N.am      1 RES1   0.0000
   121 C53       2.1322   -2.6745   -0.4081   C.2       1 RES1   0.0000
   122 O7        1.8280   -1.6004    0.1374   O.2       1 RES1   0.0000
   123 C54       1.2114   -3.1884   -1.5152   C.3       1 RES1   0.0000
   124 C55       1.0897   -2.0407   -2.5158   C.2       1 RES1   0.0000
   125 O8        0.7713   -0.9227   -2.0796   O.2       1 RES1   0.0000
   126 N8        1.2928   -2.2786   -3.8178   N.am      1 RES1   0.0000
   127 C56       1.7855   -3.5490   -4.3339   C.3       1 RES1   0.0000
   128 C57       1.0419   -1.2519   -4.7904   C.ar      1 RES1   0.0000
   129 C58       0.3860   -1.6015   -5.9673   C.ar      1 RES1   0.0000
   130 C59       0.1643   -0.6511   -6.9487   C.ar      1 RES1   0.0000
   131 C60       0.5844    0.6557   -6.7591   C.ar      1 RES1   0.0000
   132 C61       1.2257    1.0050   -5.5821   C.ar      1 RES1   0.0000
   133 C62       1.4549    0.0601   -4.5948   C.ar      1 RES1   0.0000
   134 C63       4.1502   -2.8683    0.8837   C.ar      1 RES1   0.0000
   135 C64       4.5972   -3.7015    1.9027   C.ar      1 RES1   0.0000
   136 C65       5.5644   -3.2585    2.7887   C.ar      1 RES1   0.0000
   137 C66       6.0828   -1.9793    2.6703   C.ar      1 RES1   0.0000
   138 C67       5.6341   -1.1488    1.6559   C.ar      1 RES1   0.0000
   139 C68       4.6657   -1.5846    0.7650   C.ar      1 RES1   0.0000
   140 H55       3.5481   -4.6930   -1.6993   H         1 RES1   0.0000
   141 H56       2.7275   -5.4203   -0.3019   H         1 RES1   0.0000
   142 H57       4.4491   -5.0429   -0.2381   H         1 RES1   0.0000
   143 H58       0.2158   -3.2948   -1.0670   H         1 RES1   0.0000
   144 H59       1.4968   -4.1339   -1.9528   H         1 RES1   0.0000
   145 H60       2.6474   -3.8893   -3.7622   H         1 RES1   0.0000
   146 H61       2.1098   -3.4107   -5.3633   H         1 RES1   0.0000
   147 H62       1.0161   -4.3235   -4.3218   H         1 RES1   0.0000
   148 H63       0.0658   -2.6196   -6.1275   H         1 RES1   0.0000
   149 H64      -0.3148   -0.9462   -7.8688   H         1 RES1   0.0000
   150 H65       0.4433    1.3919   -7.5342   H         1 RES1   0.0000
   151 H66       1.5759    2.0169   -5.4507   H         1 RES1   0.0000
   152 H67       1.9692    0.3477   -3.6912   H         1 RES1   0.0000
   153 H68       4.2054   -4.7025    1.9991   H         1 RES1   0.0000
   154 H69       5.9265   -3.9278    3.5541   H         1 RES1   0.0000
   155 H70       6.8508   -1.6383    3.3468   H         1 RES1   0.0000
   156 H71       6.0670   -0.1664    1.5483   H         1 RES1   0.0000
   157 H72       4.3321   -0.9299   -0.0262   H         1 RES1   0.0000
@<TRIPOS>BOND
     1     1     5    1
     2     1     8    1
     3     1    44    1
     4     1    47    1
     5     1    83    1
     6     1    86    1
     7     1   122    1
     8     1   125    1
     9     2     3    1
    10     2    23    1
    11     2    24    1
    12     2    25    1
    13     3     4    1
    14     3    17    1
    15     4     5    2
    16     4     6    1
    17     6     7    1
    18     6    26    1
    19     6    27    1
    20     7     8    2
    21     7     9    1
    22     9    10    1
    23     9    11    1
    24    10    28    1
    25    10    29    1
    26    10    30    1
    27    11    12    1
    28    11    16    2
    29    12    13    2
    30    12    31    1
    31    13    14    1
    32    13    32    1
    33    14    15    2
    34    14    33    1
    35    15    16    1
    36    15    34    1
    37    16    35    1
    38    17    18    1
    39    17    22    2
    40    18    19    2
    41    18    36    1
    42    19    20    1
    43    19    37    1
    44    20    21    2
    45    20    38    1
    46    21    22    1
    47    21    39    1
    48    22    40    1
    49    41    42    1
    50    41    62    1
    51    41    63    1
    52    41    64    1
    53    42    43    1
    54    42    56    1
    55    43    44    2
    56    43    45    1
    57    45    46    1
    58    45    65    1
    59    45    66    1
    60    46    47    2
    61    46    48    1
    62    48    49    1
    63    48    50    1
    64    49    67    1
    65    49    68    1
    66    49    69    1
    67    50    51    1
    68    50    55    2
    69    51    52    2
    70    51    70    1
    71    52    53    1
    72    52    71    1
    73    53    54    2
    74    53    72    1
    75    54    55    1
    76    54    73    1
    77    55    74    1
    78    56    57    1
    79    56    61    2
    80    57    58    2
    81    57    75    1
    82    58    59    1
    83    58    76    1
    84    59    60    2
    85    59    77    1
    86    60    61    1
    87    60    78    1
    88    61    79    1
    89    80    81    1
    90    80   101    1
    91    80   102    1
    92    80   103    1
    93    81    82    1
    94    81    95    1
    95    82    83    2
    96    82    84    1
    97    84    85    1
    98    84   104    1
    99    84   105    1
   100    85    86    2
   101    85    87    1
   102    87    88    1
   103    87    89    1
   104    88   106    1
   105    88   107    1
   106    88   108    1
   107    89    90    1
   108    89    94    2
   109    90    91    2
   110    90   109    1
   111    91    92    1
   112    91   110    1
   113    92    93    2
   114    92   111    1
   115    93    94    1
   116    93   112    1
   117    94   113    1
   118    95    96    1
   119    95   100    2
   120    96    97    2
   121    96   114    1
   122    97    98    1
   123    97   115    1
   124    98    99    2
   125    98   116    1
   126    99   100    1
   127    99   117    1
   128   100   118    1
   129   119   120    1
   130   119   140    1
   131   119   141    1
   132   119   142    1
   133   120   121    1
   134   120   134    1
   135   121   122    2
   136   121   123    1
   137   123   124    1
   138   123   143    1
   139   123   144    1
   140   124   125    2
   141   124   126    1
   142   126   127    1
   143   126   128    1
   144   127   145    1
   145   127   146    1
   146   127   147    1
   147   128   129    1
   148   128   133    2
   149   129   130    2
   150   129   148    1
   151   130   131    1
   152   130   149    1
   153   131   132    2
   154   131   150    1
   155   132   133    1
   156   132   151    1
   157   133   152    1
   158   134   135    1
   159   134   139    2
   160   135   136    2
   161   135   153    1
   162   136   137    1
   163   136   154    1
   164   137   138    2
   165   137   155    1
   166   138   139    1
   167   138   156    1
   168   139   157    1
@<TRIPOS>SUBSTRUCTURE
     1 RES1      157 GROUP             0 ****  ****    0  
