@<TRIPOS>MOLECULE
ICIGOT_geomtry_0_nunpairedes_0_charge_3 Charge: 3 Unpaired_Electrons: 3 XTB_Unpaired_Electrons: 0 XTB_Charge: 3
   281   288     1     0     0
SMALL
NoCharges
****
Generated from Architector

@<TRIPOS>ATOM
     1 Er1      -0.1986    0.1071    0.3002   Er        1 RES1   0.0000
     2 C1       -5.0345   -3.7662    5.9743   C.3       1 RES1   0.0000
     3 C2       -5.6093   -3.8816    4.5664   C.3       1 RES1   0.0000
     4 C3       -4.5343   -4.3544    3.5984   C.3       1 RES1   0.0000
     5 C4       -5.0167   -4.7117    2.1959   C.3       1 RES1   0.0000
     6 C5       -5.4968   -3.5319    1.3424   C.3       1 RES1   0.0000
     7 C6       -4.4832   -2.3842    1.2736   C.3       1 RES1   0.0000
     8 C7       -4.7053   -1.4167    0.1057   C.3       1 RES1   0.0000
     9 C8       -4.2297   -1.9821   -1.2365   C.3       1 RES1   0.0000
    10 P1       -2.3881   -1.8022   -1.5234   P.3       1 RES1   0.0000
    11 O1       -1.6552   -1.3579   -0.2859   O.2       1 RES1   0.0000
    12 C9       -2.5861   -0.3219   -2.6811   C.3       1 RES1   0.0000
    13 C10      -1.4972    0.7241   -2.8878   C.2       1 RES1   0.0000
    14 O2       -0.6187    0.8816   -2.0243   O.2       1 RES1   0.0000
    15 N1       -1.6002    1.4977   -3.9853   N.am      1 RES1   0.0000
    16 C11      -0.7287    2.6488   -4.2992   C.3       1 RES1   0.0000
    17 C12       0.7926    2.7092   -4.0554   C.3       1 RES1   0.0000
    18 C13       1.2273    3.1084   -2.6477   C.3       1 RES1   0.0000
    19 C14       1.5044    1.4408   -4.4881   C.3       1 RES1   0.0000
    20 C15      -2.7506    1.4225   -4.8996   C.3       1 RES1   0.0000
    21 C16      -3.9979    2.2502   -4.5013   C.3       1 RES1   0.0000
    22 C17      -3.8830    3.7133   -4.9317   C.3       1 RES1   0.0000
    23 C18      -5.2474    1.6413   -5.1545   C.3       1 RES1   0.0000
    24 C19      -1.8969   -3.5655   -1.8380   C.ar      1 RES1   0.0000
    25 C20      -0.9631   -4.0771   -2.7207   C.ar      1 RES1   0.0000
    26 C21      -0.6719   -5.4336   -2.7369   C.ar      1 RES1   0.0000
    27 C22      -1.3484   -6.3101   -1.9063   C.ar      1 RES1   0.0000
    28 C23      -2.2733   -5.8064   -1.0063   C.ar      1 RES1   0.0000
    29 C24      -2.5201   -4.4465   -0.9508   C.ar      1 RES1   0.0000
    30 H1       -4.6716   -4.7339    6.3161   H         1 RES1   0.0000
    31 H2       -5.7833   -3.4174    6.6824   H         1 RES1   0.0000
    32 H3       -4.1932   -3.0723    5.9890   H         1 RES1   0.0000
    33 H4       -6.0056   -2.9160    4.2533   H         1 RES1   0.0000
    34 H5       -6.4346   -4.5922    4.5816   H         1 RES1   0.0000
    35 H6       -4.0748   -5.2466    4.0235   H         1 RES1   0.0000
    36 H7       -3.7628   -3.5895    3.5343   H         1 RES1   0.0000
    37 H8       -5.8345   -5.4285    2.2733   H         1 RES1   0.0000
    38 H9       -4.1914   -5.2125    1.6816   H         1 RES1   0.0000
    39 H10      -6.4402   -3.1561    1.7416   H         1 RES1   0.0000
    40 H11      -5.7007   -3.9000    0.3316   H         1 RES1   0.0000
    41 H12      -3.4709   -2.7837    1.2047   H         1 RES1   0.0000
    42 H13      -4.5259   -1.8178    2.2049   H         1 RES1   0.0000
    43 H14      -4.1672   -0.4847    0.3117   H         1 RES1   0.0000
    44 H15      -5.7694   -1.1802    0.0240   H         1 RES1   0.0000
    45 H16      -4.7425   -1.4728   -2.0542   H         1 RES1   0.0000
    46 H17      -4.5275   -3.0247   -1.3228   H         1 RES1   0.0000
    47 H18      -3.4005    0.2264   -2.1776   H         1 RES1   0.0000
    48 H19      -2.9900   -0.7159   -3.6110   H         1 RES1   0.0000
    49 H20      -1.1686    3.5217   -3.8145   H         1 RES1   0.0000
    50 H21      -0.8496    2.7814   -5.3757   H         1 RES1   0.0000
    51 H22       1.1187    3.5249   -4.7126   H         1 RES1   0.0000
    52 H23       1.0949    2.2912   -1.9373   H         1 RES1   0.0000
    53 H24       0.6533    3.9686   -2.3151   H         1 RES1   0.0000
    54 H25       2.2817    3.3801   -2.6715   H         1 RES1   0.0000
    55 H26       1.1537    0.6256   -3.8670   H         1 RES1   0.0000
    56 H27       2.5770    1.5592   -4.3553   H         1 RES1   0.0000
    57 H28       1.3223    1.2144   -5.5349   H         1 RES1   0.0000
    58 H29      -3.0756    0.3918   -5.0119   H         1 RES1   0.0000
    59 H30      -2.4174    1.7555   -5.8861   H         1 RES1   0.0000
    60 H31      -4.1249    2.2064   -3.4137   H         1 RES1   0.0000
    61 H32      -3.6779    3.7795   -5.9971   H         1 RES1   0.0000
    62 H33      -3.0947    4.2339   -4.3966   H         1 RES1   0.0000
    63 H34      -4.8216    4.2332   -4.7527   H         1 RES1   0.0000
    64 H35      -5.1373    1.6117   -6.2369   H         1 RES1   0.0000
    65 H36      -6.1186    2.2557   -4.9379   H         1 RES1   0.0000
    66 H37      -5.4665    0.6385   -4.7875   H         1 RES1   0.0000
    67 H38      -0.4424   -3.4311   -3.3960   H         1 RES1   0.0000
    68 H39       0.0916   -5.8072   -3.4028   H         1 RES1   0.0000
    69 H40      -1.1455   -7.3685   -1.9560   H         1 RES1   0.0000
    70 H41      -2.8068   -6.4748   -0.3448   H         1 RES1   0.0000
    71 H42      -3.2010   -4.0829   -0.2004   H         1 RES1   0.0000
    72 C25      -0.8839    9.4526    2.4892   C.3       1 RES1   0.0000
    73 C26      -0.8993    9.5554    4.0080   C.3       1 RES1   0.0000
    74 C27      -1.4726    8.3194    4.6979   C.3       1 RES1   0.0000
    75 C28      -0.7295    7.0136    4.4170   C.3       1 RES1   0.0000
    76 C29       0.7286    7.0359    4.8764   C.3       1 RES1   0.0000
    77 C30       1.4116    5.6819    4.6663   C.3       1 RES1   0.0000
    78 C31       1.7813    5.4415    3.1999   C.3       1 RES1   0.0000
    79 C32       1.9299    3.9607    2.8355   C.3       1 RES1   0.0000
    80 P2        0.4135    3.1989    2.1415   P.3       1 RES1   0.0000
    81 O3        0.6860    1.7705    1.7464   O.2       1 RES1   0.0000
    82 C33      -0.0026    4.2148    0.6507   C.3       1 RES1   0.0000
    83 C34      -1.2376    3.6327    0.0128   C.2       1 RES1   0.0000
    84 O4       -1.3492    2.3891   -0.0149   O.2       1 RES1   0.0000
    85 N2       -2.1541    4.4437   -0.5210   N.am      1 RES1   0.0000
    86 C35      -2.0892    5.9047   -0.5096   C.3       1 RES1   0.0000
    87 C36      -1.0533    6.5528   -1.4530   C.3       1 RES1   0.0000
    88 C37      -1.3571    6.2649   -2.9206   C.3       1 RES1   0.0000
    89 C38      -1.0437    8.0611   -1.1975   C.3       1 RES1   0.0000
    90 C39      -3.2398    3.8197   -1.2697   C.3       1 RES1   0.0000
    91 C40      -4.5691    3.5549   -0.5354   C.3       1 RES1   0.0000
    92 C41      -4.4377    2.5438    0.6058   C.3       1 RES1   0.0000
    93 C42      -5.2341    4.8342   -0.0350   C.3       1 RES1   0.0000
    94 C43      -0.9652    3.4048    3.3197   C.ar      1 RES1   0.0000
    95 C44      -0.7623    3.0676    4.6532   C.ar      1 RES1   0.0000
    96 C45      -1.7605    3.2630    5.5937   C.ar      1 RES1   0.0000
    97 C46      -2.9669    3.8300    5.2147   C.ar      1 RES1   0.0000
    98 C47      -3.1728    4.1890    3.8939   C.ar      1 RES1   0.0000
    99 C48      -2.1761    3.9741    2.9548   C.ar      1 RES1   0.0000
   100 H43      -0.5958   10.4037    2.0528   H         1 RES1   0.0000
   101 H44      -1.8702    9.1902    2.1115   H         1 RES1   0.0000
   102 H45      -0.1657    8.7061    2.1568   H         1 RES1   0.0000
   103 H46      -1.5131   10.4071    4.2966   H         1 RES1   0.0000
   104 H47       0.1092    9.7457    4.3724   H         1 RES1   0.0000
   105 H48      -2.5135    8.1896    4.3941   H         1 RES1   0.0000
   106 H49      -1.4653    8.4867    5.7747   H         1 RES1   0.0000
   107 H50      -0.7825    6.7822    3.3498   H         1 RES1   0.0000
   108 H51      -1.2449    6.2029    4.9424   H         1 RES1   0.0000
   109 H52       0.7512    7.2871    5.9376   H         1 RES1   0.0000
   110 H53       1.2827    7.8077    4.3425   H         1 RES1   0.0000
   111 H54       0.7259    4.9069    5.0067   H         1 RES1   0.0000
   112 H55       2.3150    5.6219    5.2753   H         1 RES1   0.0000
   113 H56       2.7150    5.9636    2.9925   H         1 RES1   0.0000
   114 H57       1.0201    5.8972    2.5676   H         1 RES1   0.0000
   115 H58       2.2277    3.3719    3.7062   H         1 RES1   0.0000
   116 H59       2.7097    3.8110    2.0822   H         1 RES1   0.0000
   117 H60       0.8247    4.0668   -0.0522   H         1 RES1   0.0000
   118 H61      -0.0720    5.2706    0.8931   H         1 RES1   0.0000
   119 H62      -1.9047    6.2652    0.5083   H         1 RES1   0.0000
   120 H63      -3.0756    6.2561   -0.8101   H         1 RES1   0.0000
   121 H64      -0.0535    6.1655   -1.2299   H         1 RES1   0.0000
   122 H65      -2.2963    6.7221   -3.2230   H         1 RES1   0.0000
   123 H66      -1.4093    5.1925   -3.0933   H         1 RES1   0.0000
   124 H67      -0.5695    6.6688   -3.5517   H         1 RES1   0.0000
   125 H68      -2.0097    8.5012   -1.4368   H         1 RES1   0.0000
   126 H69      -0.2936    8.5399   -1.8210   H         1 RES1   0.0000
   127 H70      -0.8035    8.2827   -0.1595   H         1 RES1   0.0000
   128 H71      -2.8471    2.8580   -1.6112   H         1 RES1   0.0000
   129 H72      -3.4421    4.4673   -2.1217   H         1 RES1   0.0000
   130 H73      -5.2256    3.1252   -1.3012   H         1 RES1   0.0000
   131 H74      -4.1548    3.0448    1.5264   H         1 RES1   0.0000
   132 H75      -3.6867    1.7846    0.3867   H         1 RES1   0.0000
   133 H76      -5.3909    2.0506    0.7835   H         1 RES1   0.0000
   134 H77      -4.6366    5.3080    0.7395   H         1 RES1   0.0000
   135 H78      -6.2062    4.5999    0.3919   H         1 RES1   0.0000
   136 H79      -5.3890    5.5458   -0.8432   H         1 RES1   0.0000
   137 H80       0.2025    2.6989    4.9725   H         1 RES1   0.0000
   138 H81      -1.5756    3.0137    6.6281   H         1 RES1   0.0000
   139 H82      -3.7264    4.0218    5.9554   H         1 RES1   0.0000
   140 H83      -4.1009    4.6553    3.6027   H         1 RES1   0.0000
   141 H84      -2.3423    4.2691    1.9375   H         1 RES1   0.0000
   142 C49      -8.9935   -2.6141    3.1971   C.3       1 RES1   0.0000
   143 C50      -9.3349   -1.4827    4.1571   C.3       1 RES1   0.0000
   144 C51      -8.1339   -0.6645    4.6333   C.3       1 RES1   0.0000
   145 C52      -7.3660    0.0469    3.5145   C.3       1 RES1   0.0000
   146 C53      -6.5225    1.2184    4.0377   C.3       1 RES1   0.0000
   147 C54      -5.2813    0.7932    4.8375   C.3       1 RES1   0.0000
   148 C55      -4.0592    0.5651    3.9456   C.3       1 RES1   0.0000
   149 C56      -2.9572   -0.2183    4.6515   C.3       1 RES1   0.0000
   150 P3       -1.6294   -0.7352    3.4748   P.3       1 RES1   0.0000
   151 O5       -1.7779   -0.1305    2.1098   O.2       1 RES1   0.0000
   152 C57      -0.0670   -0.1967    4.2959   C.3       1 RES1   0.0000
   153 C58       1.0492   -0.8471    3.5137   C.2       1 RES1   0.0000
   154 O6        0.8968   -0.9982    2.2837   O.2       1 RES1   0.0000
   155 N3        2.1159   -1.2605    4.1925   N.am      1 RES1   0.0000
   156 C59       3.2048   -1.9873    3.5479   C.3       1 RES1   0.0000
   157 C60       2.7471   -3.2062    2.7409   C.3       1 RES1   0.0000
   158 C61       1.9472   -4.1722    3.6045   C.3       1 RES1   0.0000
   159 C62       3.9376   -3.9592    2.1555   C.3       1 RES1   0.0000
   160 C63       2.4028   -0.7620    5.5324   C.3       1 RES1   0.0000
   161 C64       1.9168   -1.6430    6.7040   C.3       1 RES1   0.0000
   162 C65       2.9448   -2.7050    7.0866   C.3       1 RES1   0.0000
   163 C66       1.6712   -0.7321    7.9077   C.3       1 RES1   0.0000
   164 C67      -1.4542   -2.5457    3.5603   C.ar      1 RES1   0.0000
   165 C68      -1.2952   -3.2860    2.3999   C.ar      1 RES1   0.0000
   166 C69      -1.2159   -4.6661    2.4654   C.ar      1 RES1   0.0000
   167 C70      -1.2534   -5.3106    3.6900   C.ar      1 RES1   0.0000
   168 C71      -1.3373   -4.5711    4.8597   C.ar      1 RES1   0.0000
   169 C72      -1.4475   -3.1921    4.7949   C.ar      1 RES1   0.0000
   170 H85      -9.8971   -3.1647    2.9481   H         1 RES1   0.0000
   171 H86      -8.2911   -3.3098    3.6491   H         1 RES1   0.0000
   172 H87      -8.5655   -2.2309    2.2729   H         1 RES1   0.0000
   173 H88      -9.8219   -1.9115    5.0343   H         1 RES1   0.0000
   174 H89     -10.0531   -0.8166    3.6765   H         1 RES1   0.0000
   175 H90      -7.4534   -1.3104    5.1892   H         1 RES1   0.0000
   176 H91      -8.5107    0.0891    5.3268   H         1 RES1   0.0000
   177 H92      -8.0895    0.4421    2.7976   H         1 RES1   0.0000
   178 H93      -6.7251   -0.6616    2.9824   H         1 RES1   0.0000
   179 H94      -7.1602    1.8313    4.6775   H         1 RES1   0.0000
   180 H95      -6.2072    1.8451    3.1981   H         1 RES1   0.0000
   181 H96      -5.5096   -0.1215    5.3848   H         1 RES1   0.0000
   182 H97      -5.0453    1.5594    5.5773   H         1 RES1   0.0000
   183 H98      -3.6482    1.5200    3.6159   H         1 RES1   0.0000
   184 H99      -4.3677    0.0186    3.0546   H         1 RES1   0.0000
   185 H100     -3.3755   -1.1199    5.1031   H         1 RES1   0.0000
   186 H101     -2.5132    0.3776    5.4547   H         1 RES1   0.0000
   187 H102     -0.0918   -0.4756    5.3455   H         1 RES1   0.0000
   188 H103      0.0044    0.8852    4.2025   H         1 RES1   0.0000
   189 H104      3.8850   -2.3079    4.3382   H         1 RES1   0.0000
   190 H105      3.7323   -1.2797    2.8998   H         1 RES1   0.0000
   191 H106      2.1250   -2.8454    1.9184   H         1 RES1   0.0000
   192 H107      2.5741   -4.5710    4.3957   H         1 RES1   0.0000
   193 H108      1.6036   -5.0091    3.0041   H         1 RES1   0.0000
   194 H109      1.0823   -3.7025    4.0590   H         1 RES1   0.0000
   195 H110      4.5413   -4.3902    2.9499   H         1 RES1   0.0000
   196 H111      4.5658   -3.3087    1.5574   H         1 RES1   0.0000
   197 H112      3.5696   -4.7680    1.5267   H         1 RES1   0.0000
   198 H113      1.9734    0.2367    5.6255   H         1 RES1   0.0000
   199 H114      3.4848   -0.6354    5.6093   H         1 RES1   0.0000
   200 H115      0.9845   -2.1458    6.4173   H         1 RES1   0.0000
   201 H116      3.8836   -2.2354    7.3745   H         1 RES1   0.0000
   202 H117      3.1265   -3.3963    6.2693   H         1 RES1   0.0000
   203 H118      2.5799   -3.2755    7.9364   H         1 RES1   0.0000
   204 H119      2.6044   -0.2549    8.1978   H         1 RES1   0.0000
   205 H120      1.3152   -1.3024    8.7586   H         1 RES1   0.0000
   206 H121      0.9319    0.0399    7.7000   H         1 RES1   0.0000
   207 H122     -1.2291   -2.7591    1.4579   H         1 RES1   0.0000
   208 H123     -1.1219   -5.2296    1.5522   H         1 RES1   0.0000
   209 H124     -1.2141   -6.3867    3.7330   H         1 RES1   0.0000
   210 H125     -1.3171   -5.0711    5.8158   H         1 RES1   0.0000
   211 H126     -1.5225   -2.6257    5.7110   H         1 RES1   0.0000
   212 C73       6.9199   -4.3095    4.8024   C.3       1 RES1   0.0000
   213 C74       8.1335   -3.5872    4.2290   C.3       1 RES1   0.0000
   214 C75       7.8686   -2.8795    2.8974   C.3       1 RES1   0.0000
   215 C76       6.9930   -1.6315    3.0219   C.3       1 RES1   0.0000
   216 C77       7.0132   -0.7572    1.7630   C.3       1 RES1   0.0000
   217 C78       6.4021   -1.3971    0.5069   C.3       1 RES1   0.0000
   218 C79       4.9728   -0.9387    0.1902   C.3       1 RES1   0.0000
   219 C80       4.4613   -1.6983   -1.0316   C.3       1 RES1   0.0000
   220 P4        2.6247   -1.8489   -1.2194   P.3       1 RES1   0.0000
   221 O7        1.8230   -0.8699   -0.4102   O.2       1 RES1   0.0000
   222 C81       2.4757   -1.5722   -3.0339   C.3       1 RES1   0.0000
   223 C82       1.0410   -1.7067   -3.4679   C.2       1 RES1   0.0000
   224 O8        0.1531   -1.4517   -2.6395   O.2       1 RES1   0.0000
   225 N4        0.7971   -2.0431   -4.7529   N.am      1 RES1   0.0000
   226 C83      -0.3845   -1.4755   -5.4002   C.3       1 RES1   0.0000
   227 C84      -1.6504   -2.3281   -5.6033   C.3       1 RES1   0.0000
   228 C85      -1.4042   -3.7436   -6.1122   C.3       1 RES1   0.0000
   229 C86      -2.5323   -1.5701   -6.6097   C.3       1 RES1   0.0000
   230 C87       1.8584   -2.5048   -5.6534   C.3       1 RES1   0.0000
   231 C88       2.5163   -3.8649   -5.3140   C.3       1 RES1   0.0000
   232 C89       1.8635   -5.0639   -6.0051   C.3       1 RES1   0.0000
   233 C90       3.9873   -3.7932   -5.7397   C.3       1 RES1   0.0000
   234 C91       2.2723   -3.6276   -1.0650   C.ar      1 RES1   0.0000
   235 C92       1.3126   -4.2179   -0.2579   C.ar      1 RES1   0.0000
   236 C93       1.2467   -5.6027   -0.1868   C.ar      1 RES1   0.0000
   237 C94       2.1020   -6.3969   -0.9309   C.ar      1 RES1   0.0000
   238 C95       3.0261   -5.8107   -1.7807   C.ar      1 RES1   0.0000
   239 C96       3.1108   -4.4343   -1.8316   C.ar      1 RES1   0.0000
   240 H127      7.1894   -4.8095    5.7297   H         1 RES1   0.0000
   241 H128      6.5592   -5.0636    4.1053   H         1 RES1   0.0000
   242 H129      6.1101   -3.6154    5.0161   H         1 RES1   0.0000
   243 H130      8.9216   -4.3254    4.0759   H         1 RES1   0.0000
   244 H131      8.5023   -2.8676    4.9618   H         1 RES1   0.0000
   245 H132      7.4030   -3.5913    2.2131   H         1 RES1   0.0000
   246 H133      8.8301   -2.5799    2.4759   H         1 RES1   0.0000
   247 H134      7.3793   -1.0276    3.8454   H         1 RES1   0.0000
   248 H135      5.9693   -1.9129    3.2686   H         1 RES1   0.0000
   249 H136      8.0534   -0.5043    1.5586   H         1 RES1   0.0000
   250 H137      6.4949    0.1816    1.9702   H         1 RES1   0.0000
   251 H138      6.4129   -2.4830    0.6120   H         1 RES1   0.0000
   252 H139      7.0234   -1.1634   -0.3586   H         1 RES1   0.0000
   253 H140      4.9608    0.1382    0.0059   H         1 RES1   0.0000
   254 H141      4.3099   -1.1435    1.0306   H         1 RES1   0.0000
   255 H142      4.8434   -2.7193   -0.9677   H         1 RES1   0.0000
   256 H143      4.8772   -1.2617   -1.9434   H         1 RES1   0.0000
   257 H144      3.1555   -2.2247   -3.5668   H         1 RES1   0.0000
   258 H145      2.7982   -0.5453   -3.2293   H         1 RES1   0.0000
   259 H146     -0.0601   -1.1043   -6.3750   H         1 RES1   0.0000
   260 H147     -0.6650   -0.6028   -4.8082   H         1 RES1   0.0000
   261 H148     -2.1713   -2.4195   -4.6428   H         1 RES1   0.0000
   262 H149     -0.7177   -3.7467   -6.9518   H         1 RES1   0.0000
   263 H150     -2.3492   -4.1705   -6.4404   H         1 RES1   0.0000
   264 H151     -1.0055   -4.3864   -5.3343   H         1 RES1   0.0000
   265 H152     -2.4072   -1.9987   -7.5991   H         1 RES1   0.0000
   266 H153     -2.2582   -0.5212   -6.6782   H         1 RES1   0.0000
   267 H154     -3.5844   -1.6368   -6.3469   H         1 RES1   0.0000
   268 H155      2.6352   -1.7346   -5.7139   H         1 RES1   0.0000
   269 H156      1.4198   -2.5720   -6.6472   H         1 RES1   0.0000
   270 H157      2.4468   -4.0469   -4.2364   H         1 RES1   0.0000
   271 H158      1.9128   -4.9679   -7.0867   H         1 RES1   0.0000
   272 H159      0.8276   -5.1884   -5.7068   H         1 RES1   0.0000
   273 H160      2.4016   -5.9688   -5.7289   H         1 RES1   0.0000
   274 H161      4.0481   -3.6006   -6.8090   H         1 RES1   0.0000
   275 H162      4.4873   -4.7386   -5.5497   H         1 RES1   0.0000
   276 H163      4.5335   -3.0056   -5.2181   H         1 RES1   0.0000
   277 H164      0.6337   -3.6029    0.3137   H         1 RES1   0.0000
   278 H165      0.5325   -6.0811    0.4639   H         1 RES1   0.0000
   279 H166      2.0622   -7.4700   -0.8409   H         1 RES1   0.0000
   280 H167      3.6864   -6.4166   -2.3818   H         1 RES1   0.0000
   281 H168      3.8580   -3.9807   -2.4637   H         1 RES1   0.0000
@<TRIPOS>BOND
     1     1    11    1
     2     1    14    1
     3     1    81    1
     4     1    84    1
     5     1   151    1
     6     1   154    1
     7     1   221    1
     8     1   224    1
     9     2     3    1
    10     2    30    1
    11     2    31    1
    12     2    32    1
    13     3     4    1
    14     3    33    1
    15     3    34    1
    16     4     5    1
    17     4    35    1
    18     4    36    1
    19     5     6    1
    20     5    37    1
    21     5    38    1
    22     6     7    1
    23     6    39    1
    24     6    40    1
    25     7     8    1
    26     7    41    1
    27     7    42    1
    28     8     9    1
    29     8    43    1
    30     8    44    1
    31     9    10    1
    32     9    45    1
    33     9    46    1
    34    10    11    2
    35    10    12    1
    36    10    24    1
    37    12    13    1
    38    12    47    1
    39    12    48    1
    40    13    14    2
    41    13    15    1
    42    15    16    1
    43    15    20    1
    44    16    17    1
    45    16    49    1
    46    16    50    1
    47    17    18    1
    48    17    19    1
    49    17    51    1
    50    18    52    1
    51    18    53    1
    52    18    54    1
    53    19    55    1
    54    19    56    1
    55    19    57    1
    56    20    21    1
    57    20    58    1
    58    20    59    1
    59    21    22    1
    60    21    23    1
    61    21    60    1
    62    22    61    1
    63    22    62    1
    64    22    63    1
    65    23    64    1
    66    23    65    1
    67    23    66    1
    68    24    25    1
    69    24    29    2
    70    25    26    2
    71    25    67    1
    72    26    27    1
    73    26    68    1
    74    27    28    2
    75    27    69    1
    76    28    29    1
    77    28    70    1
    78    29    71    1
    79    72    73    1
    80    72   100    1
    81    72   101    1
    82    72   102    1
    83    73    74    1
    84    73   103    1
    85    73   104    1
    86    74    75    1
    87    74   105    1
    88    74   106    1
    89    75    76    1
    90    75   107    1
    91    75   108    1
    92    76    77    1
    93    76   109    1
    94    76   110    1
    95    77    78    1
    96    77   111    1
    97    77   112    1
    98    78    79    1
    99    78   113    1
   100    78   114    1
   101    79    80    1
   102    79   115    1
   103    79   116    1
   104    80    81    2
   105    80    82    1
   106    80    94    1
   107    82    83    1
   108    82   117    1
   109    82   118    1
   110    83    84    2
   111    83    85    1
   112    85    86    1
   113    85    90    1
   114    86    87    1
   115    86   119    1
   116    86   120    1
   117    87    88    1
   118    87    89    1
   119    87   121    1
   120    88   122    1
   121    88   123    1
   122    88   124    1
   123    89   125    1
   124    89   126    1
   125    89   127    1
   126    90    91    1
   127    90   128    1
   128    90   129    1
   129    91    92    1
   130    91    93    1
   131    91   130    1
   132    92   131    1
   133    92   132    1
   134    92   133    1
   135    93   134    1
   136    93   135    1
   137    93   136    1
   138    94    95    1
   139    94    99    2
   140    95    96    2
   141    95   137    1
   142    96    97    1
   143    96   138    1
   144    97    98    2
   145    97   139    1
   146    98    99    1
   147    98   140    1
   148    99   141    1
   149   142   143    1
   150   142   170    1
   151   142   171    1
   152   142   172    1
   153   143   144    1
   154   143   173    1
   155   143   174    1
   156   144   145    1
   157   144   175    1
   158   144   176    1
   159   145   146    1
   160   145   177    1
   161   145   178    1
   162   146   147    1
   163   146   179    1
   164   146   180    1
   165   147   148    1
   166   147   181    1
   167   147   182    1
   168   148   149    1
   169   148   183    1
   170   148   184    1
   171   149   150    1
   172   149   185    1
   173   149   186    1
   174   150   151    2
   175   150   152    1
   176   150   164    1
   177   152   153    1
   178   152   187    1
   179   152   188    1
   180   153   154    2
   181   153   155    1
   182   155   156    1
   183   155   160    1
   184   156   157    1
   185   156   189    1
   186   156   190    1
   187   157   158    1
   188   157   159    1
   189   157   191    1
   190   158   192    1
   191   158   193    1
   192   158   194    1
   193   159   195    1
   194   159   196    1
   195   159   197    1
   196   160   161    1
   197   160   198    1
   198   160   199    1
   199   161   162    1
   200   161   163    1
   201   161   200    1
   202   162   201    1
   203   162   202    1
   204   162   203    1
   205   163   204    1
   206   163   205    1
   207   163   206    1
   208   164   165    1
   209   164   169    2
   210   165   166    2
   211   165   207    1
   212   166   167    1
   213   166   208    1
   214   167   168    2
   215   167   209    1
   216   168   169    1
   217   168   210    1
   218   169   211    1
   219   212   213    1
   220   212   240    1
   221   212   241    1
   222   212   242    1
   223   213   214    1
   224   213   243    1
   225   213   244    1
   226   214   215    1
   227   214   245    1
   228   214   246    1
   229   215   216    1
   230   215   247    1
   231   215   248    1
   232   216   217    1
   233   216   249    1
   234   216   250    1
   235   217   218    1
   236   217   251    1
   237   217   252    1
   238   218   219    1
   239   218   253    1
   240   218   254    1
   241   219   220    1
   242   219   255    1
   243   219   256    1
   244   220   221    2
   245   220   222    1
   246   220   234    1
   247   222   223    1
   248   222   257    1
   249   222   258    1
   250   223   224    2
   251   223   225    1
   252   225   226    1
   253   225   230    1
   254   226   227    1
   255   226   259    1
   256   226   260    1
   257   227   228    1
   258   227   229    1
   259   227   261    1
   260   228   262    1
   261   228   263    1
   262   228   264    1
   263   229   265    1
   264   229   266    1
   265   229   267    1
   266   230   231    1
   267   230   268    1
   268   230   269    1
   269   231   232    1
   270   231   233    1
   271   231   270    1
   272   232   271    1
   273   232   272    1
   274   232   273    1
   275   233   274    1
   276   233   275    1
   277   233   276    1
   278   234   235    1
   279   234   239    2
   280   235   236    2
   281   235   277    1
   282   236   237    1
   283   236   278    1
   284   237   238    2
   285   237   279    1
   286   238   239    1
   287   238   280    1
   288   239   281    1
@<TRIPOS>SUBSTRUCTURE
     1 RES1      281 GROUP             0 ****  ****    0  
