@<TRIPOS>MOLECULE
ICIGOT_geomtry_0_nunpairedes_0_charge_3 Charge: 3 Unpaired_Electrons: 3 XTB_Unpaired_Electrons: 0 XTB_Charge: 3
   281   284     1     0     0
SMALL
NoCharges
****
Generated from Architector

@<TRIPOS>ATOM
     1 Er1      -0.2696   -0.2461    0.1274   Er        1 RES1   0.0000
     2 C1       -0.1529    1.2768    5.4319   C.3       1 RES1   0.0000
     3 C2       -0.2216   -0.2023    5.8011   C.3       1 RES1   0.0000
     4 C3       -1.3957   -0.4721    6.7457   C.3       1 RES1   0.0000
     5 C4       -1.9001   -1.9158    6.7368   C.3       1 RES1   0.0000
     6 C5       -2.2953   -2.4477    5.3569   C.3       1 RES1   0.0000
     7 C6       -3.2335   -1.5601    4.5332   C.3       1 RES1   0.0000
     8 C7       -3.2172   -2.0894    3.1034   C.3       1 RES1   0.0000
     9 C8       -4.2962   -1.5884    2.1481   C.3       1 RES1   0.0000
    10 N1       -4.1526   -0.1790    1.7954   N.am      1 RES1   0.0000
    11 C9       -5.2390    0.6939    2.2034   C.3       1 RES1   0.0000
    12 C10      -6.4033    0.5688    1.2101   C.3       1 RES1   0.0000
    13 C11      -7.6135    1.4357    1.6019   C.3       1 RES1   0.0000
    14 C12      -7.8174    2.6572    0.7033   C.3       1 RES1   0.0000
    15 C13      -6.7472    3.7544    0.8289   C.3       1 RES1   0.0000
    16 C14      -6.3700    4.2794   -0.5563   C.3       1 RES1   0.0000
    17 C15      -7.2153    4.9183    1.7098   C.3       1 RES1   0.0000
    18 C16      -7.2290    4.6196    3.2082   C.3       1 RES1   0.0000
    19 C17      -5.9047    4.1669    3.8288   C.3       1 RES1   0.0000
    20 C18      -4.7645    5.1948    3.8685   C.3       1 RES1   0.0000
    21 C19      -3.9952    5.3069    2.5531   C.3       1 RES1   0.0000
    22 C20      -3.7882    4.8070    4.9814   C.3       1 RES1   0.0000
    23 C21      -3.2156    0.1775    0.9427   C.2       1 RES1   0.0000
    24 O1       -2.4158   -0.6398    0.4179   O.2       1 RES1   0.0000
    25 C22      -3.0460    1.6567    0.5796   C.3       1 RES1   0.0000
    26 O2       -1.7253    1.8181    0.0687   O.3       1 RES1   0.0000
    27 C23      -1.5617    2.7470   -1.0008   C.3       1 RES1   0.0000
    28 C24      -0.7554    2.0456   -2.1025   C.2       1 RES1   0.0000
    29 O3       -0.2428    0.9342   -1.8195   O.2       1 RES1   0.0000
    30 N2       -0.5789    2.6349   -3.2685   N.am      1 RES1   0.0000
    31 C25      -1.1925    3.8966   -3.6771   C.3       1 RES1   0.0000
    32 C26      -2.4441    3.7133   -4.5441   C.3       1 RES1   0.0000
    33 C27      -3.5924    3.0255   -3.8089   C.3       1 RES1   0.0000
    34 C28      -4.7900    2.7390   -4.7192   C.3       1 RES1   0.0000
    35 C29      -4.5520    1.6417   -5.7580   C.3       1 RES1   0.0000
    36 C30      -4.3264    0.2539   -5.1596   C.3       1 RES1   0.0000
    37 C31      -4.1551   -0.8024   -6.2492   C.3       1 RES1   0.0000
    38 C32      -3.8650   -2.1739   -5.6565   C.3       1 RES1   0.0000
    39 C33       0.3081    1.9838   -4.2340   C.3       1 RES1   0.0000
    40 C34      -0.3173    0.7858   -4.9550   C.3       1 RES1   0.0000
    41 C35       0.6179    0.2216   -6.0430   C.3       1 RES1   0.0000
    42 C36       1.1866   -1.1563   -5.7066   C.3       1 RES1   0.0000
    43 C37       2.1130   -1.2050   -4.4826   C.3       1 RES1   0.0000
    44 C38       2.0139   -2.5833   -3.8196   C.3       1 RES1   0.0000
    45 C39       3.5942   -0.9887   -4.8266   C.3       1 RES1   0.0000
    46 C40       3.9805    0.3799   -5.4059   C.3       1 RES1   0.0000
    47 C41       4.1189    0.3983   -6.9356   C.3       1 RES1   0.0000
    48 C42       5.5465    0.1123   -7.4236   C.3       1 RES1   0.0000
    49 C43       5.6133    0.2831   -8.9409   C.3       1 RES1   0.0000
    50 C44       6.0324   -1.2856   -7.0416   C.3       1 RES1   0.0000
    51 H1        0.7161    1.4900    4.8085   H         1 RES1   0.0000
    52 H2       -0.0709    1.8794    6.3315   H         1 RES1   0.0000
    53 H3       -1.0628    1.5897    4.9174   H         1 RES1   0.0000
    54 H4        0.7088   -0.5003    6.2827   H         1 RES1   0.0000
    55 H5       -0.3072   -0.8103    4.8927   H         1 RES1   0.0000
    56 H6       -2.2223    0.1977    6.5019   H         1 RES1   0.0000
    57 H7       -1.0845   -0.2212    7.7587   H         1 RES1   0.0000
    58 H8       -2.7536   -1.9803    7.4134   H         1 RES1   0.0000
    59 H9       -1.1222   -2.5725    7.1302   H         1 RES1   0.0000
    60 H10      -2.7813   -3.4154    5.4863   H         1 RES1   0.0000
    61 H11      -1.3892   -2.6329    4.7702   H         1 RES1   0.0000
    62 H12      -2.9138   -0.5215    4.5609   H         1 RES1   0.0000
    63 H13      -4.2401   -1.6221    4.9427   H         1 RES1   0.0000
    64 H14      -3.3648   -3.1649    3.1779   H         1 RES1   0.0000
    65 H15      -2.2404   -1.9088    2.6456   H         1 RES1   0.0000
    66 H16      -5.2773   -1.7213    2.5976   H         1 RES1   0.0000
    67 H17      -4.2378   -2.1746    1.2272   H         1 RES1   0.0000
    68 H18      -4.8970    1.7262    2.2523   H         1 RES1   0.0000
    69 H19      -5.5667    0.4036    3.2048   H         1 RES1   0.0000
    70 H20      -6.7024   -0.4795    1.1727   H         1 RES1   0.0000
    71 H21      -6.0549    0.8367    0.2084   H         1 RES1   0.0000
    72 H22      -7.5060    1.7500    2.6398   H         1 RES1   0.0000
    73 H23      -8.5142    0.8230    1.5413   H         1 RES1   0.0000
    74 H24      -8.7939    3.0787    0.9368   H         1 RES1   0.0000
    75 H25      -7.8589    2.3151   -0.3326   H         1 RES1   0.0000
    76 H26      -5.8476    3.3195    1.2713   H         1 RES1   0.0000
    77 H27      -7.2278    4.7581   -1.0189   H         1 RES1   0.0000
    78 H28      -6.0408    3.4652   -1.2025   H         1 RES1   0.0000
    79 H29      -5.5687    5.0125   -0.4889   H         1 RES1   0.0000
    80 H30      -8.2250    5.2005    1.4077   H         1 RES1   0.0000
    81 H31      -6.5863    5.7879    1.5242   H         1 RES1   0.0000
    82 H32      -7.9768    3.8486    3.4052   H         1 RES1   0.0000
    83 H33      -7.5559    5.5200    3.7275   H         1 RES1   0.0000
    84 H34      -5.5449    3.2634    3.3338   H         1 RES1   0.0000
    85 H35      -6.1276    3.8835    4.8593   H         1 RES1   0.0000
    86 H36      -5.1839    6.1734    4.1109   H         1 RES1   0.0000
    87 H37      -3.6112    4.3285    2.2633   H         1 RES1   0.0000
    88 H38      -3.1502    5.9804    2.6732   H         1 RES1   0.0000
    89 H39      -4.6159    5.6911    1.7530   H         1 RES1   0.0000
    90 H40      -3.3801    3.8092    4.8117   H         1 RES1   0.0000
    91 H41      -4.2908    4.8070    5.9437   H         1 RES1   0.0000
    92 H42      -2.9644    5.5145    5.0340   H         1 RES1   0.0000
    93 H43      -3.1688    2.2803    1.4757   H         1 RES1   0.0000
    94 H44      -3.7947    1.9514   -0.1676   H         1 RES1   0.0000
    95 H45      -0.9722    3.6045   -0.6390   H         1 RES1   0.0000
    96 H46      -2.5251    3.0980   -1.3728   H         1 RES1   0.0000
    97 H47      -0.4456    4.4425   -4.2573   H         1 RES1   0.0000
    98 H48      -1.4299    4.4952   -2.7969   H         1 RES1   0.0000
    99 H49      -2.1886    3.1546   -5.4429   H         1 RES1   0.0000
   100 H50      -2.7684    4.7039   -4.8669   H         1 RES1   0.0000
   101 H51      -3.9293    3.6823   -3.0015   H         1 RES1   0.0000
   102 H52      -3.2469    2.0827   -3.3761   H         1 RES1   0.0000
   103 H53      -5.0637    3.6596   -5.2349   H         1 RES1   0.0000
   104 H54      -5.6379    2.4522   -4.0946   H         1 RES1   0.0000
   105 H55      -3.7073    1.9096   -6.3950   H         1 RES1   0.0000
   106 H56      -5.4291    1.5970   -6.4051   H         1 RES1   0.0000
   107 H57      -5.1837   -0.0081   -4.5352   H         1 RES1   0.0000
   108 H58      -3.4344    0.2490   -4.5231   H         1 RES1   0.0000
   109 H59      -3.3336   -0.5130   -6.9082   H         1 RES1   0.0000
   110 H60      -5.0626   -0.8527   -6.8506   H         1 RES1   0.0000
   111 H61      -2.9624   -2.1362   -5.0482   H         1 RES1   0.0000
   112 H62      -3.7152   -2.9093   -6.4409   H         1 RES1   0.0000
   113 H63      -4.6937   -2.5052   -5.0341   H         1 RES1   0.0000
   114 H64       1.2025    1.6764   -3.6848   H         1 RES1   0.0000
   115 H65       0.5890    2.7279   -4.9776   H         1 RES1   0.0000
   116 H66      -1.2438    1.1180   -5.4202   H         1 RES1   0.0000
   117 H67      -0.5739    0.0071   -4.2308   H         1 RES1   0.0000
   118 H68       1.4272    0.9206   -6.2390   H         1 RES1   0.0000
   119 H69       0.0565    0.1216   -6.9716   H         1 RES1   0.0000
   120 H70       1.7188   -1.5443   -6.5743   H         1 RES1   0.0000
   121 H71       0.3407   -1.8266   -5.5384   H         1 RES1   0.0000
   122 H72       1.7906   -0.4425   -3.7590   H         1 RES1   0.0000
   123 H73       2.4994   -3.3248   -4.4500   H         1 RES1   0.0000
   124 H74       0.9826   -2.9067   -3.6904   H         1 RES1   0.0000
   125 H75       2.5180   -2.5849   -2.8550   H         1 RES1   0.0000
   126 H76       3.8814   -1.7653   -5.5333   H         1 RES1   0.0000
   127 H77       4.1692   -1.1640   -3.9109   H         1 RES1   0.0000
   128 H78       4.9410    0.6833   -4.9844   H         1 RES1   0.0000
   129 H79       3.2496    1.1261   -5.0865   H         1 RES1   0.0000
   130 H80       3.8392    1.3866   -7.3079   H         1 RES1   0.0000
   131 H81       3.4406   -0.3239   -7.3922   H         1 RES1   0.0000
   132 H82       6.2142    0.8499   -6.9621   H         1 RES1   0.0000
   133 H83       4.9608   -0.4350   -9.4348   H         1 RES1   0.0000
   134 H84       6.6281    0.1195   -9.2939   H         1 RES1   0.0000
   135 H85       5.3086    1.2860   -9.2331   H         1 RES1   0.0000
   136 H86       5.3527   -2.0435   -7.4290   H         1 RES1   0.0000
   137 H87       6.1212   -1.3991   -5.9629   H         1 RES1   0.0000
   138 H88       7.0122   -1.4619   -7.4782   H         1 RES1   0.0000
   139 C45      -1.3935   -4.4717   -4.1557   C.3       1 RES1   0.0000
   140 C46      -2.5221   -4.5092   -3.1314   C.3       1 RES1   0.0000
   141 C47      -2.9410   -5.9514   -2.8503   C.3       1 RES1   0.0000
   142 C48      -3.9978   -6.0884   -1.7541   C.3       1 RES1   0.0000
   143 C49      -3.6879   -5.3229   -0.4669   C.3       1 RES1   0.0000
   144 C50      -2.2974   -5.5584    0.1299   C.3       1 RES1   0.0000
   145 C51      -2.0554   -4.4682    1.1659   C.3       1 RES1   0.0000
   146 C52      -0.8466   -4.6503    2.0796   C.3       1 RES1   0.0000
   147 N3        0.4208   -4.3263    1.4297   N.am      1 RES1   0.0000
   148 C53       1.4059   -5.3935    1.3837   C.3       1 RES1   0.0000
   149 C54       2.1193   -5.5062    2.7407   C.3       1 RES1   0.0000
   150 C55       3.1639   -6.6373    2.7689   C.3       1 RES1   0.0000
   151 C56       4.6143   -6.1510    2.7209   C.3       1 RES1   0.0000
   152 C57       5.0556   -5.4852    1.4070   C.3       1 RES1   0.0000
   153 C58       5.9596   -4.2929    1.7230   C.3       1 RES1   0.0000
   154 C59       5.8024   -6.4554    0.4848   C.3       1 RES1   0.0000
   155 C60       4.9406   -7.5384   -0.1623   C.3       1 RES1   0.0000
   156 C61       3.7824   -7.0700   -1.0482   C.3       1 RES1   0.0000
   157 C62       4.1474   -6.3346   -2.3457   C.3       1 RES1   0.0000
   158 C63       4.3879   -4.8384   -2.1459   C.3       1 RES1   0.0000
   159 C64       3.0197   -6.5117   -3.3653   C.3       1 RES1   0.0000
   160 C65       0.6937   -3.0817    1.1038   C.2       1 RES1   0.0000
   161 O4       -0.0755   -2.1182    1.3334   O.2       1 RES1   0.0000
   162 C66       2.0144   -2.7712    0.3868   C.3       1 RES1   0.0000
   163 O5        1.9460   -1.4235   -0.0729   O.3       1 RES1   0.0000
   164 C67       3.1743   -0.7001   -0.0670   C.3       1 RES1   0.0000
   165 C68       2.8636    0.7207    0.4260   C.2       1 RES1   0.0000
   166 O6        1.6547    1.0321    0.5616   O.2       1 RES1   0.0000
   167 N4        3.8605    1.5597    0.6454   N.am      1 RES1   0.0000
   168 C69       5.2810    1.2187    0.5725   C.3       1 RES1   0.0000
   169 C70       5.9282    0.9684    1.9430   C.3       1 RES1   0.0000
   170 C71       5.2952   -0.1852    2.7180   C.3       1 RES1   0.0000
   171 C72       5.9802   -0.4558    4.0620   C.3       1 RES1   0.0000
   172 C73       5.7982    0.6253    5.1298   C.3       1 RES1   0.0000
   173 C74       4.3664    0.7695    5.6475   C.3       1 RES1   0.0000
   174 C75       4.3225    1.6262    6.9129   C.3       1 RES1   0.0000
   175 C76       2.8968    1.9111    7.3684   C.3       1 RES1   0.0000
   176 C77       3.5391    2.9432    0.9924   C.3       1 RES1   0.0000
   177 C78       3.2056    3.1544    2.4712   C.3       1 RES1   0.0000
   178 C79       3.0021    4.6442    2.8081   C.3       1 RES1   0.0000
   179 C80       1.5483    4.9827    3.1278   C.3       1 RES1   0.0000
   180 C81       0.5657    4.6976    1.9800   C.3       1 RES1   0.0000
   181 C82      -0.6939    4.0484    2.5512   C.3       1 RES1   0.0000
   182 C83       0.1790    5.9583    1.1991   C.3       1 RES1   0.0000
   183 C84       1.3285    6.5916    0.3987   C.3       1 RES1   0.0000
   184 C85       2.0020    7.7893    1.0855   C.3       1 RES1   0.0000
   185 C86       1.4246    9.1458    0.6601   C.3       1 RES1   0.0000
   186 C87       2.2021   10.2683    1.3459   C.3       1 RES1   0.0000
   187 C88      -0.0636    9.2717    0.9827   C.3       1 RES1   0.0000
   188 H89      -1.1560   -3.4513   -4.4573   H         1 RES1   0.0000
   189 H90      -1.6833   -5.0228   -5.0460   H         1 RES1   0.0000
   190 H91      -0.4963   -4.9402   -3.7529   H         1 RES1   0.0000
   191 H92      -3.3845   -3.9523   -3.5001   H         1 RES1   0.0000
   192 H93      -2.1871   -4.0277   -2.2040   H         1 RES1   0.0000
   193 H94      -2.0614   -6.5436   -2.5925   H         1 RES1   0.0000
   194 H95      -3.3481   -6.3700   -3.7708   H         1 RES1   0.0000
   195 H96      -4.1270   -7.1465   -1.5319   H         1 RES1   0.0000
   196 H97      -4.9565   -5.7253   -2.1282   H         1 RES1   0.0000
   197 H98      -4.4293   -5.5984    0.2849   H         1 RES1   0.0000
   198 H99      -3.8155   -4.2521   -0.6528   H         1 RES1   0.0000
   199 H100     -1.5331   -5.5318   -0.6422   H         1 RES1   0.0000
   200 H101     -2.2661   -6.5377    0.6039   H         1 RES1   0.0000
   201 H102     -2.9336   -4.4595    1.8083   H         1 RES1   0.0000
   202 H103     -1.9816   -3.4939    0.6734   H         1 RES1   0.0000
   203 H104     -0.7891   -5.6826    2.4139   H         1 RES1   0.0000
   204 H105     -0.9575   -4.0011    2.9515   H         1 RES1   0.0000
   205 H106      2.1304   -5.1947    0.5959   H         1 RES1   0.0000
   206 H107      0.9015   -6.3336    1.1457   H         1 RES1   0.0000
   207 H108      1.3594   -5.6917    3.5007   H         1 RES1   0.0000
   208 H109      2.5897   -4.5488    2.9849   H         1 RES1   0.0000
   209 H110      2.9696   -7.3231    1.9451   H         1 RES1   0.0000
   210 H111      3.0378   -7.2041    3.6931   H         1 RES1   0.0000
   211 H112      5.2585   -7.0066    2.9199   H         1 RES1   0.0000
   212 H113      4.7595   -5.4458    3.5425   H         1 RES1   0.0000
   213 H114      4.1720   -5.1082    0.8841   H         1 RES1   0.0000
   214 H115      6.8565   -4.6355    2.2298   H         1 RES1   0.0000
   215 H116      5.4523   -3.5812    2.3747   H         1 RES1   0.0000
   216 H117      6.2641   -3.7787    0.8139   H         1 RES1   0.0000
   217 H118      6.5822   -6.9465    1.0689   H         1 RES1   0.0000
   218 H119      6.3127   -5.8907   -0.2950   H         1 RES1   0.0000
   219 H120      4.5293   -8.1718    0.6255   H         1 RES1   0.0000
   220 H121      5.5961   -8.1678   -0.7632   H         1 RES1   0.0000
   221 H122      3.1002   -6.4445   -0.4732   H         1 RES1   0.0000
   222 H123      3.2256   -7.9678   -1.3231   H         1 RES1   0.0000
   223 H124      5.0529   -6.7838   -2.7588   H         1 RES1   0.0000
   224 H125      3.4728   -4.3664   -1.7839   H         1 RES1   0.0000
   225 H126      4.6544   -4.3776   -3.0941   H         1 RES1   0.0000
   226 H127      5.1866   -4.6443   -1.4396   H         1 RES1   0.0000
   227 H128      2.0782   -6.1189   -2.9778   H         1 RES1   0.0000
   228 H129      2.8788   -7.5616   -3.6029   H         1 RES1   0.0000
   229 H130      3.2565   -5.9878   -4.2877   H         1 RES1   0.0000
   230 H131      2.1295   -3.4493   -0.4694   H         1 RES1   0.0000
   231 H132      2.8598   -2.9045    1.0749   H         1 RES1   0.0000
   232 H133      3.5709   -0.6339   -1.0915   H         1 RES1   0.0000
   233 H134      3.9130   -1.1808    0.5786   H         1 RES1   0.0000
   234 H135      5.7886    2.0647    0.1019   H         1 RES1   0.0000
   235 H136      5.4204    0.3504   -0.0725   H         1 RES1   0.0000
   236 H137      5.8951    1.8792    2.5377   H         1 RES1   0.0000
   237 H138      6.9816    0.7449    1.7674   H         1 RES1   0.0000
   238 H139      5.3875   -1.0934    2.1150   H         1 RES1   0.0000
   239 H140      4.2342    0.0133    2.8890   H         1 RES1   0.0000
   240 H141      7.0470   -0.5942    3.8835   H         1 RES1   0.0000
   241 H142      5.5939   -1.3980    4.4568   H         1 RES1   0.0000
   242 H143      6.1519    1.5861    4.7536   H         1 RES1   0.0000
   243 H144      6.4419    0.3644    5.9721   H         1 RES1   0.0000
   244 H145      3.9657   -0.2209    5.8781   H         1 RES1   0.0000
   245 H146      3.7265    1.2213    4.8828   H         1 RES1   0.0000
   246 H147      4.8352    2.5728    6.7310   H         1 RES1   0.0000
   247 H148      4.8581    1.1039    7.7066   H         1 RES1   0.0000
   248 H149      2.3806    2.5341    6.6401   H         1 RES1   0.0000
   249 H150      2.9011    2.4353    8.3193   H         1 RES1   0.0000
   250 H151      2.3381    0.9858    7.4955   H         1 RES1   0.0000
   251 H152      2.6999    3.2393    0.3579   H         1 RES1   0.0000
   252 H153      4.4030    3.5561    0.7405   H         1 RES1   0.0000
   253 H154      4.0294    2.7646    3.0664   H         1 RES1   0.0000
   254 H155      2.3096    2.5846    2.7317   H         1 RES1   0.0000
   255 H156      3.3599    5.2664    1.9900   H         1 RES1   0.0000
   256 H157      3.6037    4.8957    3.6810   H         1 RES1   0.0000
   257 H158      1.4781    6.0281    3.4236   H         1 RES1   0.0000
   258 H159      1.2550    4.3946    3.9994   H         1 RES1   0.0000
   259 H160      1.0230    3.9858    1.2832   H         1 RES1   0.0000
   260 H161     -1.1880    4.7295    3.2385   H         1 RES1   0.0000
   261 H162     -0.4339    3.1470    3.1046   H         1 RES1   0.0000
   262 H163     -1.3942    3.7877    1.7617   H         1 RES1   0.0000
   263 H164     -0.2206    6.6858    1.9022   H         1 RES1   0.0000
   264 H165     -0.6368    5.6960    0.5156   H         1 RES1   0.0000
   265 H166      0.9479    6.9310   -0.5667   H         1 RES1   0.0000
   266 H167      2.0761    5.8235    0.1881   H         1 RES1   0.0000
   267 H168      3.0665    7.7928    0.8407   H         1 RES1   0.0000
   268 H169      1.9241    7.7039    2.1696   H         1 RES1   0.0000
   269 H170      1.5556    9.2445   -0.4243   H         1 RES1   0.0000
   270 H171      2.0887   10.2067    2.4270   H         1 RES1   0.0000
   271 H172      1.8334   11.2374    1.0206   H         1 RES1   0.0000
   272 H173      3.2618   10.2093    1.1062   H         1 RES1   0.0000
   273 H174     -0.2356    9.1266    2.0483   H         1 RES1   0.0000
   274 H175     -0.6561    8.5497    0.4236   H         1 RES1   0.0000
   275 H176     -0.4112   10.2675    0.7201   H         1 RES1   0.0000
   276 O7       -0.5302    0.5077    2.3665   O.3       1 RES1   0.0000
   277 H177     -0.1554    1.3804    2.5932   H         1 RES1   0.0000
   278 H178     -0.6122    0.0332    3.2169   H         1 RES1   0.0000
   279 O8       -0.5088   -1.8643   -1.6489   O.3       1 RES1   0.0000
   280 H179     -1.2784   -2.3700   -1.9690   H         1 RES1   0.0000
   281 H180      0.0923   -1.8001   -2.4190   H         1 RES1   0.0000
@<TRIPOS>BOND
     1     1    24    1
     2     1    26    1
     3     1    29    1
     4     1   161    1
     5     1   163    1
     6     1   166    1
     7     1   276    1
     8     1   279    1
     9     2     3    1
    10     2    51    1
    11     2    52    1
    12     2    53    1
    13     3     4    1
    14     3    54    1
    15     3    55    1
    16     4     5    1
    17     4    56    1
    18     4    57    1
    19     5     6    1
    20     5    58    1
    21     5    59    1
    22     6     7    1
    23     6    60    1
    24     6    61    1
    25     7     8    1
    26     7    62    1
    27     7    63    1
    28     8     9    1
    29     8    64    1
    30     8    65    1
    31     9    10    1
    32     9    66    1
    33     9    67    1
    34    10    11    1
    35    10    23    1
    36    11    12    1
    37    11    68    1
    38    11    69    1
    39    12    13    1
    40    12    70    1
    41    12    71    1
    42    13    14    1
    43    13    72    1
    44    13    73    1
    45    14    15    1
    46    14    74    1
    47    14    75    1
    48    15    16    1
    49    15    17    1
    50    15    76    1
    51    16    77    1
    52    16    78    1
    53    16    79    1
    54    17    18    1
    55    17    80    1
    56    17    81    1
    57    18    19    1
    58    18    82    1
    59    18    83    1
    60    19    20    1
    61    19    84    1
    62    19    85    1
    63    20    21    1
    64    20    22    1
    65    20    86    1
    66    21    87    1
    67    21    88    1
    68    21    89    1
    69    22    90    1
    70    22    91    1
    71    22    92    1
    72    23    24    2
    73    23    25    1
    74    25    26    1
    75    25    93    1
    76    25    94    1
    77    26    27    1
    78    27    28    1
    79    27    95    1
    80    27    96    1
    81    28    29    2
    82    28    30    1
    83    30    31    1
    84    30    39    1
    85    31    32    1
    86    31    97    1
    87    31    98    1
    88    32    33    1
    89    32    99    1
    90    32   100    1
    91    33    34    1
    92    33   101    1
    93    33   102    1
    94    34    35    1
    95    34   103    1
    96    34   104    1
    97    35    36    1
    98    35   105    1
    99    35   106    1
   100    36    37    1
   101    36   107    1
   102    36   108    1
   103    37    38    1
   104    37   109    1
   105    37   110    1
   106    38   111    1
   107    38   112    1
   108    38   113    1
   109    39    40    1
   110    39   114    1
   111    39   115    1
   112    40    41    1
   113    40   116    1
   114    40   117    1
   115    41    42    1
   116    41   118    1
   117    41   119    1
   118    42    43    1
   119    42   120    1
   120    42   121    1
   121    43    44    1
   122    43    45    1
   123    43   122    1
   124    44   123    1
   125    44   124    1
   126    44   125    1
   127    45    46    1
   128    45   126    1
   129    45   127    1
   130    46    47    1
   131    46   128    1
   132    46   129    1
   133    47    48    1
   134    47   130    1
   135    47   131    1
   136    48    49    1
   137    48    50    1
   138    48   132    1
   139    49   133    1
   140    49   134    1
   141    49   135    1
   142    50   136    1
   143    50   137    1
   144    50   138    1
   145   139   140    1
   146   139   188    1
   147   139   189    1
   148   139   190    1
   149   140   141    1
   150   140   191    1
   151   140   192    1
   152   141   142    1
   153   141   193    1
   154   141   194    1
   155   142   143    1
   156   142   195    1
   157   142   196    1
   158   143   144    1
   159   143   197    1
   160   143   198    1
   161   144   145    1
   162   144   199    1
   163   144   200    1
   164   145   146    1
   165   145   201    1
   166   145   202    1
   167   146   147    1
   168   146   203    1
   169   146   204    1
   170   147   148    1
   171   147   160    1
   172   148   149    1
   173   148   205    1
   174   148   206    1
   175   149   150    1
   176   149   207    1
   177   149   208    1
   178   150   151    1
   179   150   209    1
   180   150   210    1
   181   151   152    1
   182   151   211    1
   183   151   212    1
   184   152   153    1
   185   152   154    1
   186   152   213    1
   187   153   214    1
   188   153   215    1
   189   153   216    1
   190   154   155    1
   191   154   217    1
   192   154   218    1
   193   155   156    1
   194   155   219    1
   195   155   220    1
   196   156   157    1
   197   156   221    1
   198   156   222    1
   199   157   158    1
   200   157   159    1
   201   157   223    1
   202   158   224    1
   203   158   225    1
   204   158   226    1
   205   159   227    1
   206   159   228    1
   207   159   229    1
   208   160   161    2
   209   160   162    1
   210   162   163    1
   211   162   230    1
   212   162   231    1
   213   163   164    1
   214   164   165    1
   215   164   232    1
   216   164   233    1
   217   165   166    2
   218   165   167    1
   219   167   168    1
   220   167   176    1
   221   168   169    1
   222   168   234    1
   223   168   235    1
   224   169   170    1
   225   169   236    1
   226   169   237    1
   227   170   171    1
   228   170   238    1
   229   170   239    1
   230   171   172    1
   231   171   240    1
   232   171   241    1
   233   172   173    1
   234   172   242    1
   235   172   243    1
   236   173   174    1
   237   173   244    1
   238   173   245    1
   239   174   175    1
   240   174   246    1
   241   174   247    1
   242   175   248    1
   243   175   249    1
   244   175   250    1
   245   176   177    1
   246   176   251    1
   247   176   252    1
   248   177   178    1
   249   177   253    1
   250   177   254    1
   251   178   179    1
   252   178   255    1
   253   178   256    1
   254   179   180    1
   255   179   257    1
   256   179   258    1
   257   180   181    1
   258   180   182    1
   259   180   259    1
   260   181   260    1
   261   181   261    1
   262   181   262    1
   263   182   183    1
   264   182   263    1
   265   182   264    1
   266   183   184    1
   267   183   265    1
   268   183   266    1
   269   184   185    1
   270   184   267    1
   271   184   268    1
   272   185   186    1
   273   185   187    1
   274   185   269    1
   275   186   270    1
   276   186   271    1
   277   186   272    1
   278   187   273    1
   279   187   274    1
   280   187   275    1
   281   276   277    1
   282   276   278    1
   283   279   280    1
   284   279   281    1
@<TRIPOS>SUBSTRUCTURE
     1 RES1      281 GROUP             0 ****  ****    0  
