@<TRIPOS>MOLECULE
ICIGOT_geomtry_0_nunpairedes_0_charge_3 Charge: 3 Unpaired_Electrons: 3 XTB_Unpaired_Electrons: 0 XTB_Charge: 3
   247   252     1     0     0
SMALL
NoCharges
****
Generated from Architector

@<TRIPOS>ATOM
     1 Er1      -0.0881    0.1169    0.0176   Er        1 RES1   0.0000
     2 C1       -6.8783    0.5521   -6.0081   C.3       1 RES1   0.0000
     3 C2       -7.2740    0.0647   -4.6182   C.3       1 RES1   0.0000
     4 C3       -8.1769    1.0578   -3.8886   C.3       1 RES1   0.0000
     5 C4       -8.7241    0.5419   -2.5537   C.3       1 RES1   0.0000
     6 C5       -7.6551    0.2812   -1.4837   C.3       1 RES1   0.0000
     7 C6       -7.2022   -1.1829   -1.4264   C.3       1 RES1   0.0000
     8 C7       -5.7730   -1.3514   -0.9053   C.3       1 RES1   0.0000
     9 C8       -4.7671   -0.7716   -1.8993   C.3       1 RES1   0.0000
    10 P1       -3.0004   -1.1550   -1.6544   P.3       1 RES1   0.0000
    11 O1       -2.3785   -0.3913   -0.5215   O.2       1 RES1   0.0000
    12 C9       -2.9031   -3.0157   -1.5882   C.3       1 RES1   0.0000
    13 C10      -2.4894   -3.5641   -0.2212   C.3       1 RES1   0.0000
    14 C11      -3.6017   -3.3787    0.8079   C.3       1 RES1   0.0000
    15 C12      -3.2030   -3.8538    2.2042   C.3       1 RES1   0.0000
    16 C13      -4.2599   -3.5462    3.2709   C.3       1 RES1   0.0000
    17 C14      -4.4514   -2.0555    3.5511   C.3       1 RES1   0.0000
    18 C15      -5.5042   -1.7780    4.6297   C.3       1 RES1   0.0000
    19 C16      -5.0919   -2.2323    6.0249   C.3       1 RES1   0.0000
    20 C17      -2.2924   -0.5891   -3.3045   C.3       1 RES1   0.0000
    21 C18      -2.2470    0.8991   -3.3329   C.ar      1 RES1   0.0000
    22 C19      -3.2756    1.6364   -3.8907   C.ar      1 RES1   0.0000
    23 C20      -3.2266    3.0156   -3.9221   C.ar      1 RES1   0.0000
    24 C21      -2.0985    3.6283   -3.4075   C.ar      1 RES1   0.0000
    25 C22      -1.0602    2.8797   -2.8847   C.ar      1 RES1   0.0000
    26 C23       0.1967    3.5306   -2.4339   C.3       1 RES1   0.0000
    27 P2        0.4026    3.4456   -0.5758   P.3       1 RES1   0.0000
    28 O2       -0.4647    2.3230   -0.0561   O.2       1 RES1   0.0000
    29 C24      -0.0417    4.9058    0.4664   C.3       1 RES1   0.0000
    30 C25      -0.1657    6.3171   -0.0893   C.3       1 RES1   0.0000
    31 C26      -1.4573    6.5343   -0.8709   C.3       1 RES1   0.0000
    32 C27      -2.7290    6.3686   -0.0381   C.3       1 RES1   0.0000
    33 C28      -3.9417    6.8739   -0.8212   C.3       1 RES1   0.0000
    34 C29      -5.2929    6.5025   -0.2075   C.3       1 RES1   0.0000
    35 C30      -5.5730    7.1554    1.1501   C.3       1 RES1   0.0000
    36 C31      -5.0829    6.3436    2.3443   C.3       1 RES1   0.0000
    37 C32       2.1731    3.0108   -0.3164   C.3       1 RES1   0.0000
    38 C33       3.2747    4.0707   -0.3645   C.3       1 RES1   0.0000
    39 C34       3.8252    4.4013   -1.7541   C.3       1 RES1   0.0000
    40 C35       3.1646    5.6132   -2.4054   C.3       1 RES1   0.0000
    41 C36       3.8104    6.0343   -3.7310   C.3       1 RES1   0.0000
    42 C37       3.2819    5.3151   -4.9756   C.3       1 RES1   0.0000
    43 C38       3.6062    3.8251   -5.0938   C.3       1 RES1   0.0000
    44 C39       5.1014    3.5335   -5.0828   C.3       1 RES1   0.0000
    45 N1       -1.1670    1.5289   -2.8080   N.ar      1 RES1   0.0000
    46 O3       -0.1897    0.8195   -2.2885   O.co2     1 RES1   0.0000
    47 H1       -6.2035   -0.1573   -6.4859   H         1 RES1   0.0000
    48 H2       -6.3847    1.5224   -5.9590   H         1 RES1   0.0000
    49 H3       -7.7555    0.6553   -6.6412   H         1 RES1   0.0000
    50 H4       -6.3709   -0.1040   -4.0289   H         1 RES1   0.0000
    51 H5       -7.7970   -0.8887   -4.7113   H         1 RES1   0.0000
    52 H6       -9.0294    1.2803   -4.5322   H         1 RES1   0.0000
    53 H7       -7.6332    1.9944   -3.7272   H         1 RES1   0.0000
    54 H8       -9.2885   -0.3739   -2.7338   H         1 RES1   0.0000
    55 H9       -9.4308    1.2822   -2.1755   H         1 RES1   0.0000
    56 H10      -8.0539    0.5458   -0.5037   H         1 RES1   0.0000
    57 H11      -6.8039    0.9406   -1.6669   H         1 RES1   0.0000
    58 H12      -7.2699   -1.6420   -2.4133   H         1 RES1   0.0000
    59 H13      -7.8773   -1.7281   -0.7639   H         1 RES1   0.0000
    60 H14      -5.5853   -2.4162   -0.7724   H         1 RES1   0.0000
    61 H15      -5.6915   -0.8646    0.0671   H         1 RES1   0.0000
    62 H16      -4.8607    0.3153   -1.9330   H         1 RES1   0.0000
    63 H17      -5.0058   -1.1708   -2.8872   H         1 RES1   0.0000
    64 H18      -2.2556   -3.3835   -2.3844   H         1 RES1   0.0000
    65 H19      -3.9049   -3.3769   -1.8207   H         1 RES1   0.0000
    66 H20      -1.6137   -3.0232    0.1547   H         1 RES1   0.0000
    67 H21      -2.2433   -4.6273   -0.3086   H         1 RES1   0.0000
    68 H22      -4.4904   -3.9313    0.5017   H         1 RES1   0.0000
    69 H23      -3.8472   -2.3147    0.8278   H         1 RES1   0.0000
    70 H24      -2.2484   -3.3992    2.4881   H         1 RES1   0.0000
    71 H25      -3.0547   -4.9355    2.1794   H         1 RES1   0.0000
    72 H26      -3.9584   -4.0388    4.1960   H         1 RES1   0.0000
    73 H27      -5.2166   -3.9747    2.9683   H         1 RES1   0.0000
    74 H28      -4.7665   -1.5454    2.6356   H         1 RES1   0.0000
    75 H29      -3.4954   -1.6255    3.8712   H         1 RES1   0.0000
    76 H30      -6.4372   -2.2688    4.3503   H         1 RES1   0.0000
    77 H31      -5.6933   -0.7020    4.6508   H         1 RES1   0.0000
    78 H32      -5.0423   -3.3152    6.0937   H         1 RES1   0.0000
    79 H33      -5.8189   -1.8859    6.7543   H         1 RES1   0.0000
    80 H34      -4.1213   -1.8233    6.2952   H         1 RES1   0.0000
    81 H35      -2.9548   -0.9594   -4.0846   H         1 RES1   0.0000
    82 H36      -1.2996   -0.9948   -3.4887   H         1 RES1   0.0000
    83 H37      -4.1151    1.1179   -4.3167   H         1 RES1   0.0000
    84 H38      -4.0214    3.5935   -4.3574   H         1 RES1   0.0000
    85 H39      -2.0080    4.6989   -3.4380   H         1 RES1   0.0000
    86 H40       0.2083    4.5661   -2.7677   H         1 RES1   0.0000
    87 H41       1.0639    3.0102   -2.8599   H         1 RES1   0.0000
    88 H42       0.7246    4.8871    1.2467   H         1 RES1   0.0000
    89 H43      -0.9891    4.6281    0.9329   H         1 RES1   0.0000
    90 H44       0.6928    6.5690   -0.7109   H         1 RES1   0.0000
    91 H45      -0.1635    7.0018    0.7618   H         1 RES1   0.0000
    92 H46      -1.4950    5.8360   -1.7092   H         1 RES1   0.0000
    93 H47      -1.4491    7.5483   -1.2740   H         1 RES1   0.0000
    94 H48      -2.6340    6.9369    0.8880   H         1 RES1   0.0000
    95 H49      -2.8908    5.3168    0.2170   H         1 RES1   0.0000
    96 H50      -3.8972    6.4624   -1.8353   H         1 RES1   0.0000
    97 H51      -3.8852    7.9605   -0.9080   H         1 RES1   0.0000
    98 H52      -5.3663    5.4153   -0.1137   H         1 RES1   0.0000
    99 H53      -6.0644    6.8194   -0.9132   H         1 RES1   0.0000
   100 H54      -6.6510    7.2819    1.2545   H         1 RES1   0.0000
   101 H55      -5.1279    8.1511    1.1659   H         1 RES1   0.0000
   102 H56      -5.4589    5.3238    2.2851   H         1 RES1   0.0000
   103 H57      -5.4495    6.7887    3.2651   H         1 RES1   0.0000
   104 H58      -3.9983    6.3076    2.3996   H         1 RES1   0.0000
   105 H59       2.3976    2.1866   -1.0082   H         1 RES1   0.0000
   106 H60       2.1679    2.5873    0.6894   H         1 RES1   0.0000
   107 H61       4.1020    3.6756    0.2281   H         1 RES1   0.0000
   108 H62       2.9397    4.9873    0.1226   H         1 RES1   0.0000
   109 H63       3.7517    3.5197   -2.3876   H         1 RES1   0.0000
   110 H64       4.8865    4.6337   -1.6547   H         1 RES1   0.0000
   111 H65       3.2591    6.4470   -1.7055   H         1 RES1   0.0000
   112 H66       2.1009    5.4333   -2.5688   H         1 RES1   0.0000
   113 H67       4.8921    5.9158   -3.6618   H         1 RES1   0.0000
   114 H68       3.6161    7.0995   -3.8771   H         1 RES1   0.0000
   115 H69       3.7019    5.8172   -5.8495   H         1 RES1   0.0000
   116 H70       2.1957    5.4456   -5.0233   H         1 RES1   0.0000
   117 H71       3.1884    3.4690   -6.0382   H         1 RES1   0.0000
   118 H72       3.1072    3.2674   -4.2953   H         1 RES1   0.0000
   119 H73       5.6002    4.1155   -5.8527   H         1 RES1   0.0000
   120 H74       5.2845    2.4816   -5.2864   H         1 RES1   0.0000
   121 H75       5.5491    3.7749   -4.1221   H         1 RES1   0.0000
   122 C40       5.9688    0.7164   -1.8166   C.3       1 RES1   0.0000
   123 C41       5.8051    0.1051   -3.2039   C.3       1 RES1   0.0000
   124 C42       4.3289    0.0492   -3.5977   C.3       1 RES1   0.0000
   125 C43       4.0880   -0.6655   -4.9267   C.3       1 RES1   0.0000
   126 C44       2.6040   -0.8259   -5.2790   C.3       1 RES1   0.0000
   127 C45       1.7412   -1.4713   -4.1848   C.3       1 RES1   0.0000
   128 C46       2.2653   -2.8631   -3.8316   C.3       1 RES1   0.0000
   129 C47       1.6663   -3.4918   -2.5735   C.3       1 RES1   0.0000
   130 P3        2.3481   -2.6910   -1.0288   P.3       1 RES1   0.0000
   131 O4        2.1111   -1.2177   -0.8164   O.2       1 RES1   0.0000
   132 C48       4.1247   -3.1791   -1.0659   C.3       1 RES1   0.0000
   133 C49       4.4545   -4.5805   -1.6018   C.3       1 RES1   0.0000
   134 C50       4.1234   -5.7237   -0.6374   C.3       1 RES1   0.0000
   135 C51       4.0381   -7.1057   -1.2951   C.3       1 RES1   0.0000
   136 C52       2.8215   -7.3396   -2.1997   C.3       1 RES1   0.0000
   137 C53       1.4390   -7.1410   -1.5684   C.3       1 RES1   0.0000
   138 C54       1.1482   -8.0517   -0.3782   C.3       1 RES1   0.0000
   139 C55      -0.2668   -7.8345    0.1463   C.3       1 RES1   0.0000
   140 C56       1.5346   -3.5765    0.4155   C.3       1 RES1   0.0000
   141 C57       2.0890   -3.0404    1.6872   C.ar      1 RES1   0.0000
   142 C58       3.1802   -3.6001    2.3234   C.ar      1 RES1   0.0000
   143 C59       3.6097   -3.1016    3.5347   C.ar      1 RES1   0.0000
   144 C60       2.9289   -2.0290    4.0764   C.ar      1 RES1   0.0000
   145 C61       1.8576   -1.4517    3.4169   C.ar      1 RES1   0.0000
   146 C62       1.1342   -0.2969    4.0360   C.3       1 RES1   0.0000
   147 P4        1.3290    1.3020    3.0831   P.3       1 RES1   0.0000
   148 O5        1.2353    0.9809    1.6165   O.2       1 RES1   0.0000
   149 C63       0.1163    2.5377    3.7027   C.3       1 RES1   0.0000
   150 C64      -1.3599    2.1716    3.6883   C.3       1 RES1   0.0000
   151 C65      -2.2228    3.2616    4.3290   C.3       1 RES1   0.0000
   152 C66      -3.6210    2.7513    4.6933   C.3       1 RES1   0.0000
   153 C67      -3.6513    1.5593    5.6560   C.3       1 RES1   0.0000
   154 C68      -2.8996    1.7961    6.9663   C.3       1 RES1   0.0000
   155 C69      -2.6982    0.5144    7.7776   C.3       1 RES1   0.0000
   156 C70      -1.6477   -0.4142    7.1750   C.3       1 RES1   0.0000
   157 C71       2.9095    2.1583    3.4564   C.3       1 RES1   0.0000
   158 C72       4.1314    1.5102    2.8115   C.3       1 RES1   0.0000
   159 C73       4.9191    0.6891    3.8316   C.3       1 RES1   0.0000
   160 C74       5.7986    1.5504    4.7492   C.3       1 RES1   0.0000
   161 C75       7.2340    1.6867    4.2424   C.3       1 RES1   0.0000
   162 C76       7.3517    2.4467    2.9228   C.3       1 RES1   0.0000
   163 C77       8.8071    2.7327    2.5564   C.3       1 RES1   0.0000
   164 C78       9.5892    1.4633    2.2461   C.3       1 RES1   0.0000
   165 N2        1.4496   -1.9766    2.2341   N.ar      1 RES1   0.0000
   166 O6        0.3805   -1.5218    1.6339   O.co2     1 RES1   0.0000
   167 H76       7.0129    0.7217   -1.5181   H         1 RES1   0.0000
   168 H77       5.6104    1.7432   -1.8074   H         1 RES1   0.0000
   169 H78       5.3969    0.1516   -1.0794   H         1 RES1   0.0000
   170 H79       6.3667    0.6958   -3.9286   H         1 RES1   0.0000
   171 H80       6.2294   -0.9027   -3.2145   H         1 RES1   0.0000
   172 H81       3.7837   -0.4559   -2.7941   H         1 RES1   0.0000
   173 H82       3.9396    1.0665   -3.6700   H         1 RES1   0.0000
   174 H83       4.5553   -0.0931   -5.7300   H         1 RES1   0.0000
   175 H84       4.5810   -1.6398   -4.9119   H         1 RES1   0.0000
   176 H85       2.1926    0.1582   -5.5120   H         1 RES1   0.0000
   177 H86       2.5314   -1.4311   -6.1851   H         1 RES1   0.0000
   178 H87       1.7349   -0.8185   -3.3061   H         1 RES1   0.0000
   179 H88       0.7200   -1.5434   -4.5727   H         1 RES1   0.0000
   180 H89       2.0750   -3.5180   -4.6855   H         1 RES1   0.0000
   181 H90       3.3420   -2.8012   -3.6918   H         1 RES1   0.0000
   182 H91       0.5867   -3.5791   -2.6877   H         1 RES1   0.0000
   183 H92       2.0186   -4.5196   -2.5020   H         1 RES1   0.0000
   184 H93       4.6272   -2.4309   -1.6823   H         1 RES1   0.0000
   185 H94       4.5228   -3.0641   -0.0552   H         1 RES1   0.0000
   186 H95       3.9715   -4.7578   -2.5606   H         1 RES1   0.0000
   187 H96       5.5270   -4.6141   -1.7982   H         1 RES1   0.0000
   188 H97       4.8989   -5.7620    0.1297   H         1 RES1   0.0000
   189 H98       3.1770   -5.5475   -0.1349   H         1 RES1   0.0000
   190 H99       4.9362   -7.2774   -1.8906   H         1 RES1   0.0000
   191 H100      4.0269   -7.8556   -0.5019   H         1 RES1   0.0000
   192 H101      2.8946   -6.7051   -3.0881   H         1 RES1   0.0000
   193 H102      2.8780   -8.3717   -2.5489   H         1 RES1   0.0000
   194 H103      1.2959   -6.1011   -1.2552   H         1 RES1   0.0000
   195 H104      0.6962   -7.3415   -2.3451   H         1 RES1   0.0000
   196 H105      1.2624   -9.0898   -0.6872   H         1 RES1   0.0000
   197 H106      1.8653   -7.8650    0.4235   H         1 RES1   0.0000
   198 H107     -1.0004   -8.0461   -0.6282   H         1 RES1   0.0000
   199 H108     -0.4674   -8.4938    0.9851   H         1 RES1   0.0000
   200 H109     -0.4069   -6.8044    0.4781   H         1 RES1   0.0000
   201 H110      0.4596   -3.3801    0.4169   H         1 RES1   0.0000
   202 H111      1.6904   -4.6482    0.3375   H         1 RES1   0.0000
   203 H112      3.6606   -4.4517    1.8803   H         1 RES1   0.0000
   204 H113      4.4314   -3.5543    4.0558   H         1 RES1   0.0000
   205 H114      3.2049   -1.6616    5.0468   H         1 RES1   0.0000
   206 H115      0.0647   -0.5190    4.1102   H         1 RES1   0.0000
   207 H116      1.5166   -0.1352    5.0440   H         1 RES1   0.0000
   208 H117      0.4295    2.7812    4.7198   H         1 RES1   0.0000
   209 H118      0.2837    3.4297    3.0931   H         1 RES1   0.0000
   210 H119     -1.6969    2.0162    2.6603   H         1 RES1   0.0000
   211 H120     -1.5029    1.2582    4.2662   H         1 RES1   0.0000
   212 H121     -1.7356    3.6402    5.2274   H         1 RES1   0.0000
   213 H122     -2.3303    4.1008    3.6396   H         1 RES1   0.0000
   214 H123     -4.1726    3.5748    5.1488   H         1 RES1   0.0000
   215 H124     -4.1410    2.4668    3.7749   H         1 RES1   0.0000
   216 H125     -4.6947    1.3496    5.8968   H         1 RES1   0.0000
   217 H126     -3.2594    0.6684    5.1608   H         1 RES1   0.0000
   218 H127     -1.9192    2.2354    6.7714   H         1 RES1   0.0000
   219 H128     -3.4668    2.5111    7.5632   H         1 RES1   0.0000
   220 H129     -2.3760    0.7860    8.7836   H         1 RES1   0.0000
   221 H130     -3.6464   -0.0162    7.8693   H         1 RES1   0.0000
   222 H131     -0.7041    0.1163    7.0512   H         1 RES1   0.0000
   223 H132     -1.4824   -1.2632    7.8326   H         1 RES1   0.0000
   224 H133     -1.9609   -0.8014    6.2052   H         1 RES1   0.0000
   225 H134      2.7690    3.1744    3.0809   H         1 RES1   0.0000
   226 H135      3.0344    2.2414    4.5341   H         1 RES1   0.0000
   227 H136      3.8044    0.8766    1.9815   H         1 RES1   0.0000
   228 H137      4.7841    2.2789    2.4035   H         1 RES1   0.0000
   229 H138      4.2053    0.1317    4.4385   H         1 RES1   0.0000
   230 H139      5.5518   -0.0369    3.3184   H         1 RES1   0.0000
   231 H140      5.3601    2.5445    4.8599   H         1 RES1   0.0000
   232 H141      5.8350    1.0958    5.7419   H         1 RES1   0.0000
   233 H142      7.8192    2.2152    4.9972   H         1 RES1   0.0000
   234 H143      7.6598    0.6882    4.1318   H         1 RES1   0.0000
   235 H144      6.8949    1.8685    2.1137   H         1 RES1   0.0000
   236 H145      6.8166    3.3969    3.0159   H         1 RES1   0.0000
   237 H146      8.8260    3.3899    1.6848   H         1 RES1   0.0000
   238 H147      9.2847    3.2648    3.3799   H         1 RES1   0.0000
   239 H148      9.0792    0.8777    1.4824   H         1 RES1   0.0000
   240 H149     10.5802    1.7146    1.8810   H         1 RES1   0.0000
   241 H150      9.7061    0.8486    3.1344   H         1 RES1   0.0000
   242 O7       -1.7356   -0.1248    1.9479   O.3       1 RES1   0.0000
   243 H151     -2.5368   -0.6659    1.8650   H         1 RES1   0.0000
   244 H152     -1.4408   -0.2571    2.8593   H         1 RES1   0.0000
   245 O8       -0.3824   -1.7649   -1.4474   O.3       1 RES1   0.0000
   246 H153     -0.2526   -2.7208   -1.3681   H         1 RES1   0.0000
   247 H154      0.1733   -1.4417   -2.1820   H         1 RES1   0.0000
@<TRIPOS>BOND
     1     1    11    1
     2     1    28    1
     3     1    46    1
     4     1   131    1
     5     1   148    1
     6     1   166    1
     7     1   242    1
     8     1   245    1
     9     2     3    1
    10     2    47    1
    11     2    48    1
    12     2    49    1
    13     3     4    1
    14     3    50    1
    15     3    51    1
    16     4     5    1
    17     4    52    1
    18     4    53    1
    19     5     6    1
    20     5    54    1
    21     5    55    1
    22     6     7    1
    23     6    56    1
    24     6    57    1
    25     7     8    1
    26     7    58    1
    27     7    59    1
    28     8     9    1
    29     8    60    1
    30     8    61    1
    31     9    10    1
    32     9    62    1
    33     9    63    1
    34    10    11    2
    35    10    12    1
    36    10    20    1
    37    12    13    1
    38    12    64    1
    39    12    65    1
    40    13    14    1
    41    13    66    1
    42    13    67    1
    43    14    15    1
    44    14    68    1
    45    14    69    1
    46    15    16    1
    47    15    70    1
    48    15    71    1
    49    16    17    1
    50    16    72    1
    51    16    73    1
    52    17    18    1
    53    17    74    1
    54    17    75    1
    55    18    19    1
    56    18    76    1
    57    18    77    1
    58    19    78    1
    59    19    79    1
    60    19    80    1
    61    20    21    1
    62    20    81    1
    63    20    82    1
    64    21    22    1
    65    21    45    2
    66    22    23    2
    67    22    83    1
    68    23    24    1
    69    23    84    1
    70    24    25    2
    71    24    85    1
    72    25    26    1
    73    25    45    1
    74    26    27    1
    75    26    86    1
    76    26    87    1
    77    27    28    2
    78    27    29    1
    79    27    37    1
    80    29    30    1
    81    29    88    1
    82    29    89    1
    83    30    31    1
    84    30    90    1
    85    30    91    1
    86    31    32    1
    87    31    92    1
    88    31    93    1
    89    32    33    1
    90    32    94    1
    91    32    95    1
    92    33    34    1
    93    33    96    1
    94    33    97    1
    95    34    35    1
    96    34    98    1
    97    34    99    1
    98    35    36    1
    99    35   100    1
   100    35   101    1
   101    36   102    1
   102    36   103    1
   103    36   104    1
   104    37    38    1
   105    37   105    1
   106    37   106    1
   107    38    39    1
   108    38   107    1
   109    38   108    1
   110    39    40    1
   111    39   109    1
   112    39   110    1
   113    40    41    1
   114    40   111    1
   115    40   112    1
   116    41    42    1
   117    41   113    1
   118    41   114    1
   119    42    43    1
   120    42   115    1
   121    42   116    1
   122    43    44    1
   123    43   117    1
   124    43   118    1
   125    44   119    1
   126    44   120    1
   127    44   121    1
   128    45    46    1
   129   122   123    1
   130   122   167    1
   131   122   168    1
   132   122   169    1
   133   123   124    1
   134   123   170    1
   135   123   171    1
   136   124   125    1
   137   124   172    1
   138   124   173    1
   139   125   126    1
   140   125   174    1
   141   125   175    1
   142   126   127    1
   143   126   176    1
   144   126   177    1
   145   127   128    1
   146   127   178    1
   147   127   179    1
   148   128   129    1
   149   128   180    1
   150   128   181    1
   151   129   130    1
   152   129   182    1
   153   129   183    1
   154   130   131    2
   155   130   132    1
   156   130   140    1
   157   132   133    1
   158   132   184    1
   159   132   185    1
   160   133   134    1
   161   133   186    1
   162   133   187    1
   163   134   135    1
   164   134   188    1
   165   134   189    1
   166   135   136    1
   167   135   190    1
   168   135   191    1
   169   136   137    1
   170   136   192    1
   171   136   193    1
   172   137   138    1
   173   137   194    1
   174   137   195    1
   175   138   139    1
   176   138   196    1
   177   138   197    1
   178   139   198    1
   179   139   199    1
   180   139   200    1
   181   140   141    1
   182   140   201    1
   183   140   202    1
   184   141   142    1
   185   141   165    2
   186   142   143    2
   187   142   203    1
   188   143   144    1
   189   143   204    1
   190   144   145    2
   191   144   205    1
   192   145   146    1
   193   145   165    1
   194   146   147    1
   195   146   206    1
   196   146   207    1
   197   147   148    2
   198   147   149    1
   199   147   157    1
   200   149   150    1
   201   149   208    1
   202   149   209    1
   203   150   151    1
   204   150   210    1
   205   150   211    1
   206   151   152    1
   207   151   212    1
   208   151   213    1
   209   152   153    1
   210   152   214    1
   211   152   215    1
   212   153   154    1
   213   153   216    1
   214   153   217    1
   215   154   155    1
   216   154   218    1
   217   154   219    1
   218   155   156    1
   219   155   220    1
   220   155   221    1
   221   156   222    1
   222   156   223    1
   223   156   224    1
   224   157   158    1
   225   157   225    1
   226   157   226    1
   227   158   159    1
   228   158   227    1
   229   158   228    1
   230   159   160    1
   231   159   229    1
   232   159   230    1
   233   160   161    1
   234   160   231    1
   235   160   232    1
   236   161   162    1
   237   161   233    1
   238   161   234    1
   239   162   163    1
   240   162   235    1
   241   162   236    1
   242   163   164    1
   243   163   237    1
   244   163   238    1
   245   164   239    1
   246   164   240    1
   247   164   241    1
   248   165   166    1
   249   242   243    1
   250   242   244    1
   251   245   246    1
   252   245   247    1
@<TRIPOS>SUBSTRUCTURE
     1 RES1      247 GROUP             0 ****  ****    0  
