@<TRIPOS>MOLECULE
YEMSEP_geometry_0_nunpairedes_0_charge_3 Charge: 3 Unpaired_Electrons: 3 XTB_Unpaired_Electrons: 0 XTB_Charge: 3
    95   105     1     0     0
SMALL
NoCharges
****
Generated from Architector

@<TRIPOS>ATOM
     1 Er1       1.0247   -0.6605   -1.5131   Er        1 RES1   0.0000
     2 C1        2.9845   -6.0053   -3.2296   C.3       1 RES1   0.0000
     3 C2        3.2269   -5.6344   -1.7771   C.3       1 RES1   0.0000
     4 C3        2.3343   -6.4170   -0.8232   C.3       1 RES1   0.0000
     5 C4        2.2835   -5.7800    0.5574   C.3       1 RES1   0.0000
     6 C5        1.1937   -4.6531    0.6074   C.3       1 RES1   0.0000
     7 C6        1.3478   -3.7159   -0.5072   C.ar      1 RES1   0.0000
     8 N1        2.1156   -2.6156   -0.3775   N.ar      1 RES1   0.0000
     9 N2        2.6728   -2.0399   -1.4390   N.ar      1 RES1   0.0000
    10 C7        2.3539   -2.5621   -2.6431   C.ar      1 RES1   0.0000
    11 C8        2.7491   -1.7409   -3.8340   C.ar      1 RES1   0.0000
    12 C9        3.6048   -1.9598   -4.8934   C.ar      1 RES1   0.0000
    13 C10       3.6948   -0.9447   -5.8487   C.ar      1 RES1   0.0000
    14 C11       2.9751    0.2407   -5.7190   C.ar      1 RES1   0.0000
    15 C12       2.1231    0.3800   -4.6239   C.ar      1 RES1   0.0000
    16 C13       1.4308    1.6141   -4.1524   C.ar      1 RES1   0.0000
    17 C14       1.2986    2.8419   -4.7939   C.ar      1 RES1   0.0000
    18 C15       0.9619    3.9645   -4.0375   C.ar      1 RES1   0.0000
    19 C16       0.9437    3.8852   -2.6458   C.ar      1 RES1   0.0000
    20 C17       1.0559    2.6250   -2.0838   C.ar      1 RES1   0.0000
    21 C18       1.7075    2.2071   -0.8107   C.ar      1 RES1   0.0000
    22 N3        1.3526    1.0519   -0.2267   N.ar      1 RES1   0.0000
    23 N4        2.2186    0.5545    0.6705   N.ar      1 RES1   0.0000
    24 C19       3.4390    1.0392    0.8261   C.ar      1 RES1   0.0000
    25 C20       4.1420    0.7347    2.0847   C.3       1 RES1   0.0000
    26 C21       5.5692    0.1640    2.0476   C.3       1 RES1   0.0000
    27 C22       5.6259   -1.3239    1.6804   C.3       1 RES1   0.0000
    28 C23       6.2383   -1.6343    0.3129   C.3       1 RES1   0.0000
    29 C24       7.6721   -1.1254    0.1732   C.3       1 RES1   0.0000
    30 C25       3.9084    1.8913   -0.2593   C.ar      1 RES1   0.0000
    31 C26       5.2248    1.7896   -0.9299   C.3       1 RES1   0.0000
    32 C27       5.3289    2.5410   -2.2637   C.3       1 RES1   0.0000
    33 C28       5.4815    4.0530   -2.0560   C.3       1 RES1   0.0000
    34 C29       5.1348    4.9088   -3.2803   C.3       1 RES1   0.0000
    35 C30       4.7531    6.3208   -2.8549   C.3       1 RES1   0.0000
    36 N5        2.9723    2.5863   -0.8575   N.ar      1 RES1   0.0000
    37 N6        1.1537    1.5142   -2.8387   N.ar      1 RES1   0.0000
    38 N7        2.0263   -0.6156   -3.7226   N.ar      1 RES1   0.0000
    39 N8        1.1785   -3.1778   -2.7825   N.ar      1 RES1   0.0000
    40 C31       0.6010   -3.7530   -1.7502   C.ar      1 RES1   0.0000
    41 C32      -0.8270   -4.1607   -1.9330   C.3       1 RES1   0.0000
    42 C33      -1.8015   -2.9623   -1.8485   C.3       1 RES1   0.0000
    43 C34      -1.6374   -1.7744   -2.8198   C.3       1 RES1   0.0000
    44 C35      -1.7791   -2.0047   -4.3361   C.3       1 RES1   0.0000
    45 C36      -0.6264   -2.7017   -5.0505   C.3       1 RES1   0.0000
    46 H1        3.6259   -5.4330   -3.8908   H         1 RES1   0.0000
    47 H2        1.9482   -5.8313   -3.5118   H         1 RES1   0.0000
    48 H3        3.1923   -7.0597   -3.3860   H         1 RES1   0.0000
    49 H4        3.0428   -4.5501   -1.6400   H         1 RES1   0.0000
    50 H5        4.2779   -5.7760   -1.5130   H         1 RES1   0.0000
    51 H6        2.7278   -7.4302   -0.7408   H         1 RES1   0.0000
    52 H7        1.3217   -6.4973   -1.2299   H         1 RES1   0.0000
    53 H8        3.2634   -5.3699    0.8136   H         1 RES1   0.0000
    54 H9        2.0131   -6.5138    1.3195   H         1 RES1   0.0000
    55 H10       1.3159   -4.1430    1.5589   H         1 RES1   0.0000
    56 H11       0.2239   -5.1409    0.5627   H         1 RES1   0.0000
    57 H12       4.1819   -2.8696   -4.9411   H         1 RES1   0.0000
    58 H13       4.3615   -1.0746   -6.6863   H         1 RES1   0.0000
    59 H14       3.0954    1.0390   -6.4365   H         1 RES1   0.0000
    60 H15       1.4447    2.9159   -5.8586   H         1 RES1   0.0000
    61 H16       0.8049    4.9203   -4.5190   H         1 RES1   0.0000
    62 H17       0.9047    4.7696   -2.0281   H         1 RES1   0.0000
    63 H18       3.4967    0.1011    2.6946   H         1 RES1   0.0000
    64 H19       4.2143    1.7053    2.5868   H         1 RES1   0.0000
    65 H20       5.9676    0.2928    3.0527   H         1 RES1   0.0000
    66 H21       6.1964    0.7445    1.3764   H         1 RES1   0.0000
    67 H22       4.6204   -1.7474    1.7268   H         1 RES1   0.0000
    68 H23       6.2379   -1.8387    2.4202   H         1 RES1   0.0000
    69 H24       5.6072   -1.2404   -0.4976   H         1 RES1   0.0000
    70 H25       6.2555   -2.7211    0.2044   H         1 RES1   0.0000
    71 H26       7.7228   -0.0401    0.1099   H         1 RES1   0.0000
    72 H27       8.1380   -1.5365   -0.7199   H         1 RES1   0.0000
    73 H28       8.2629   -1.4378    1.0309   H         1 RES1   0.0000
    74 H29       5.3803    0.7130   -1.0925   H         1 RES1   0.0000
    75 H30       6.0370    2.1160   -0.2778   H         1 RES1   0.0000
    76 H31       4.4327    2.3336   -2.8589   H         1 RES1   0.0000
    77 H32       6.1953    2.1618   -2.8063   H         1 RES1   0.0000
    78 H33       6.5050    4.2774   -1.7608   H         1 RES1   0.0000
    79 H34       4.8302    4.3488   -1.2351   H         1 RES1   0.0000
    80 H35       4.3084    4.4536   -3.8413   H         1 RES1   0.0000
    81 H36       5.9917    4.9557   -3.9578   H         1 RES1   0.0000
    82 H37       4.5903    6.9580   -3.7182   H         1 RES1   0.0000
    83 H38       5.5399    6.7622   -2.2474   H         1 RES1   0.0000
    84 H39       3.8432    6.3098   -2.2562   H         1 RES1   0.0000
    85 H40      -1.1497   -4.8699   -1.1733   H         1 RES1   0.0000
    86 H41      -0.9297   -4.6496   -2.9056   H         1 RES1   0.0000
    87 H42      -1.7782   -2.5683   -0.8211   H         1 RES1   0.0000
    88 H43      -2.7996   -3.3671   -2.0100   H         1 RES1   0.0000
    89 H44      -0.6196   -1.2480   -2.6281   H         1 RES1   0.0000
    90 H45      -2.4225   -1.0543   -2.5527   H         1 RES1   0.0000
    91 H46      -1.8951   -1.0228   -4.8024   H         1 RES1   0.0000
    92 H47      -2.7097   -2.5447   -4.5186   H         1 RES1   0.0000
    93 H48       0.2875   -2.1097   -4.9892   H         1 RES1   0.0000
    94 H49      -0.8795   -2.8114   -6.1020   H         1 RES1   0.0000
    95 H50      -0.4235   -3.6929   -4.6637   H         1 RES1   0.0000
@<TRIPOS>BOND
     1     1     8    1
     2     1     9    1
     3     1    22    1
     4     1    23    1
     5     1    36    1
     6     1    37    1
     7     1    38    1
     8     1    39    1
     9     2     3    1
    10     2    46    1
    11     2    47    1
    12     2    48    1
    13     3     4    1
    14     3    49    1
    15     3    50    1
    16     4     5    1
    17     4    51    1
    18     4    52    1
    19     5     6    1
    20     5    53    1
    21     5    54    1
    22     6     7    1
    23     6    55    1
    24     6    56    1
    25     7     8    1
    26     7    40    2
    27     8     9    2
    28     9    10    1
    29    10    11    1
    30    10    39    2
    31    11    12    1
    32    11    38    2
    33    12    13    2
    34    12    57    1
    35    13    14    1
    36    13    58    1
    37    14    15    2
    38    14    59    1
    39    15    16    1
    40    15    38    1
    41    16    17    1
    42    16    37    2
    43    17    18    2
    44    17    60    1
    45    18    19    1
    46    18    61    1
    47    19    20    2
    48    19    62    1
    49    20    21    1
    50    20    37    1
    51    21    22    1
    52    21    36    2
    53    22    23    2
    54    23    24    1
    55    24    25    1
    56    24    30    2
    57    25    26    1
    58    25    63    1
    59    25    64    1
    60    26    27    1
    61    26    65    1
    62    26    66    1
    63    27    28    1
    64    27    67    1
    65    27    68    1
    66    28    29    1
    67    28    69    1
    68    28    70    1
    69    29    71    1
    70    29    72    1
    71    29    73    1
    72    30    31    1
    73    30    36    1
    74    31    32    1
    75    31    74    1
    76    31    75    1
    77    32    33    1
    78    32    76    1
    79    32    77    1
    80    33    34    1
    81    33    78    1
    82    33    79    1
    83    34    35    1
    84    34    80    1
    85    34    81    1
    86    35    82    1
    87    35    83    1
    88    35    84    1
    89    39    40    1
    90    40    41    1
    91    41    42    1
    92    41    85    1
    93    41    86    1
    94    42    43    1
    95    42    87    1
    96    42    88    1
    97    43    44    1
    98    43    89    1
    99    43    90    1
   100    44    45    1
   101    44    91    1
   102    44    92    1
   103    45    93    1
   104    45    94    1
   105    45    95    1
@<TRIPOS>SUBSTRUCTURE
     1 RES1       95 GROUP             0 ****  ****    0  
