@<TRIPOS>MOLECULE
am_c3_9H2O_c0_0_nunpairedes_0_charge_3 Charge: 3 Unpaired_Electrons: 5 XTB_Unpaired_Electrons: 0 XTB_Charge: 3
   277   282     1     0     0
SMALL
NoCharges
****
Generated from Architector

@<TRIPOS>ATOM
     1 Sm1      -0.2487    0.0246    0.1769   Sm        1 RES1   0.0000
     2 C1       -4.8684    4.7051   -0.3404   C.3       1 RES1   0.0000
     3 C2       -4.5038    4.2909    1.0836   C.3       1 RES1   0.0000
     4 C3       -5.7040    3.8218    1.9173   C.3       1 RES1   0.0000
     5 C4       -5.9326    2.3121    1.8670   C.3       1 RES1   0.0000
     6 C5       -6.3638    1.8344    0.4847   C.3       1 RES1   0.0000
     7 C6       -6.8064    0.3745    0.4486   C.3       1 RES1   0.0000
     8 C7       -5.6394   -0.6091    0.5603   C.3       1 RES1   0.0000
     9 C8       -4.9764   -0.9563   -0.7715   C.3       1 RES1   0.0000
    10 N1       -4.3743    0.1775   -1.4722   N.am      1 RES1   0.0000
    11 C9       -5.1854    0.7604   -2.5200   C.3       1 RES1   0.0000
    12 C10      -3.1742    0.5880   -1.0955   C.2       1 RES1   0.0000
    13 O1       -2.5928    0.1263   -0.1001   O.2       1 RES1   0.0000
    14 C11      -2.3887    1.5915   -1.9635   C.3       1 RES1   0.0000
    15 O2       -1.2007    2.0038   -1.2878   O.3       1 RES1   0.0000
    16 C12      -1.2812    3.2709   -0.6282   C.3       1 RES1   0.0000
    17 C13      -0.8924    3.1217    0.8534   C.2       1 RES1   0.0000
    18 O3       -0.8423    1.9779    1.3414   O.2       1 RES1   0.0000
    19 N2       -0.6593    4.2117    1.5779   N.am      1 RES1   0.0000
    20 C14      -0.5218    4.0363    3.0279   C.3       1 RES1   0.0000
    21 C15      -1.8607    3.7697    3.7299   C.3       1 RES1   0.0000
    22 C16      -1.7033    3.8993    5.2501   C.3       1 RES1   0.0000
    23 C17      -2.8513    3.2968    6.0661   C.3       1 RES1   0.0000
    24 C18      -3.0243    1.7772    6.0009   C.3       1 RES1   0.0000
    25 C19      -2.0936    0.9591    6.8986   C.3       1 RES1   0.0000
    26 C20      -0.6245    0.9111    6.4783   C.3       1 RES1   0.0000
    27 C21      -0.4416    0.5853    4.9965   C.3       1 RES1   0.0000
    28 C22      -0.4452    5.5403    1.0113   C.3       1 RES1   0.0000
    29 C23       0.9548    5.6791    0.3772   C.3       1 RES1   0.0000
    30 C24       2.0535    6.1060    1.3564   C.3       1 RES1   0.0000
    31 C25       3.4507    6.2247    0.7248   C.3       1 RES1   0.0000
    32 C26       4.0819    4.8610    0.4364   C.3       1 RES1   0.0000
    33 C27       5.4836    4.8974   -0.1771   C.3       1 RES1   0.0000
    34 C28       5.9163    3.5613   -0.7946   C.3       1 RES1   0.0000
    35 C29       6.1800    2.4435    0.2093   C.3       1 RES1   0.0000
    36 H1       -4.0356    5.2107   -0.8297   H         1 RES1   0.0000
    37 H2       -5.7006    5.4013   -0.3123   H         1 RES1   0.0000
    38 H3       -5.1708    3.8620   -0.9551   H         1 RES1   0.0000
    39 H4       -4.0579    5.1601    1.5715   H         1 RES1   0.0000
    40 H5       -3.7490    3.4959    1.0757   H         1 RES1   0.0000
    41 H6       -6.6064    4.3312    1.5770   H         1 RES1   0.0000
    42 H7       -5.5369    4.1041    2.9583   H         1 RES1   0.0000
    43 H8       -6.7038    2.0552    2.5933   H         1 RES1   0.0000
    44 H9       -5.0091    1.8085    2.1647   H         1 RES1   0.0000
    45 H10      -5.5232    1.9741   -0.1897   H         1 RES1   0.0000
    46 H11      -7.1904    2.4574    0.1442   H         1 RES1   0.0000
    47 H12      -7.3598    0.1801   -0.4714   H         1 RES1   0.0000
    48 H13      -7.5057    0.2035    1.2667   H         1 RES1   0.0000
    49 H14      -6.0126   -1.5508    0.9628   H         1 RES1   0.0000
    50 H15      -4.8775   -0.2230    1.2372   H         1 RES1   0.0000
    51 H16      -5.7167   -1.3891   -1.4461   H         1 RES1   0.0000
    52 H17      -4.1764   -1.6820   -0.5862   H         1 RES1   0.0000
    53 H18      -6.0361    1.2923   -2.0905   H         1 RES1   0.0000
    54 H19      -5.5777   -0.0364   -3.1484   H         1 RES1   0.0000
    55 H20      -4.6124    1.4404   -3.1410   H         1 RES1   0.0000
    56 H21      -2.9776    2.4594   -2.2695   H         1 RES1   0.0000
    57 H22      -2.0505    1.0429   -2.8518   H         1 RES1   0.0000
    58 H23      -2.3027    3.6705   -0.6502   H         1 RES1   0.0000
    59 H24      -0.6182    3.9657   -1.1545   H         1 RES1   0.0000
    60 H25      -0.0695    4.9391    3.4332   H         1 RES1   0.0000
    61 H26       0.1479    3.1910    3.2139   H         1 RES1   0.0000
    62 H27      -2.2081    2.7727    3.4579   H         1 RES1   0.0000
    63 H28      -2.6100    4.4834    3.3907   H         1 RES1   0.0000
    64 H29      -1.6434    4.9602    5.5034   H         1 RES1   0.0000
    65 H30      -0.7675    3.4425    5.5605   H         1 RES1   0.0000
    66 H31      -3.7855    3.7592    5.7424   H         1 RES1   0.0000
    67 H32      -2.6930    3.5790    7.1083   H         1 RES1   0.0000
    68 H33      -2.9538    1.4263    4.9707   H         1 RES1   0.0000
    69 H34      -4.0359    1.5588    6.3394   H         1 RES1   0.0000
    70 H35      -2.4748   -0.0661    6.9279   H         1 RES1   0.0000
    71 H36      -2.1477    1.3490    7.9160   H         1 RES1   0.0000
    72 H37      -0.1256    0.1524    7.0853   H         1 RES1   0.0000
    73 H38      -0.1435    1.8594    6.7146   H         1 RES1   0.0000
    74 H39      -1.1368   -0.1884    4.6855   H         1 RES1   0.0000
    75 H40       0.5678    0.2340    4.7964   H         1 RES1   0.0000
    76 H41      -0.6317    1.4495    4.3700   H         1 RES1   0.0000
    77 H42      -0.5529    6.2607    1.8213   H         1 RES1   0.0000
    78 H43      -1.2122    5.7632    0.2664   H         1 RES1   0.0000
    79 H44       0.9045    6.4229   -0.4172   H         1 RES1   0.0000
    80 H45       1.2161    4.7199   -0.0717   H         1 RES1   0.0000
    81 H46       2.1061    5.3941    2.1815   H         1 RES1   0.0000
    82 H47       1.7941    7.0776    1.7767   H         1 RES1   0.0000
    83 H48       4.0893    6.7733    1.4168   H         1 RES1   0.0000
    84 H49       3.3887    6.8005   -0.1996   H         1 RES1   0.0000
    85 H50       3.4251    4.3439   -0.2626   H         1 RES1   0.0000
    86 H51       4.1251    4.3051    1.3749   H         1 RES1   0.0000
    87 H52       6.2101    5.1848    0.5821   H         1 RES1   0.0000
    88 H53       5.5052    5.6511   -0.9636   H         1 RES1   0.0000
    89 H54       6.8379    3.7377   -1.3487   H         1 RES1   0.0000
    90 H55       5.1673    3.2286   -1.5218   H         1 RES1   0.0000
    91 H56       6.9074    2.7642    0.9485   H         1 RES1   0.0000
    92 H57       6.5780    1.5687   -0.2991   H         1 RES1   0.0000
    93 H58       5.2754    2.1341    0.7328   H         1 RES1   0.0000
    94 C30       0.3154   -1.2340   -6.0602   C.3       1 RES1   0.0000
    95 C31       0.9642   -2.5466   -6.4915   C.3       1 RES1   0.0000
    96 C32       2.4265   -2.6621   -6.0577   C.3       1 RES1   0.0000
    97 C33       2.6061   -3.0209   -4.5824   C.3       1 RES1   0.0000
    98 C34       4.0672   -2.9769   -4.1263   C.3       1 RES1   0.0000
    99 C35       4.8078   -1.6564   -4.3453   C.3       1 RES1   0.0000
   100 C36       4.2686   -0.4910   -3.5128   C.3       1 RES1   0.0000
   101 C37       3.0533    0.2118   -4.1245   C.3       1 RES1   0.0000
   102 N3        2.6888    1.3474   -3.2866   N.am      1 RES1   0.0000
   103 C38       3.2006    2.6168   -3.7688   C.3       1 RES1   0.0000
   104 C39       2.0533    1.1563   -2.1381   C.2       1 RES1   0.0000
   105 O4        1.4593    0.1167   -1.7892   O.2       1 RES1   0.0000
   106 C40       2.1285    2.3061   -1.1370   C.3       1 RES1   0.0000
   107 O5        1.5057    1.9299    0.0828   O.3       1 RES1   0.0000
   108 C41       2.2851    2.1887    1.2492   C.3       1 RES1   0.0000
   109 C42       2.2197    0.9988    2.2013   C.2       1 RES1   0.0000
   110 O6        1.5320    0.0175    1.8651   O.2       1 RES1   0.0000
   111 N4        2.9784    1.0403    3.2969   N.am      1 RES1   0.0000
   112 C43       3.3069   -0.2344    3.9347   C.3       1 RES1   0.0000
   113 C44       4.4530   -0.8995    3.1560   C.3       1 RES1   0.0000
   114 C45       5.2063   -1.9649    3.9672   C.3       1 RES1   0.0000
   115 C46       5.3739   -3.2728    3.1936   C.3       1 RES1   0.0000
   116 C47       4.0719   -4.0766    3.1003   C.3       1 RES1   0.0000
   117 C48       3.8778   -5.1020    4.2205   C.3       1 RES1   0.0000
   118 C49       3.7357   -4.5198    5.6329   C.3       1 RES1   0.0000
   119 C50       5.0445   -4.4784    6.4121   C.3       1 RES1   0.0000
   120 C51       3.8069    2.1718    3.7167   C.3       1 RES1   0.0000
   121 C52       3.0737    3.4110    4.2397   C.3       1 RES1   0.0000
   122 C53       2.1308    3.1579    5.4132   C.3       1 RES1   0.0000
   123 C54       2.8349    2.9293    6.7494   C.3       1 RES1   0.0000
   124 C55       3.4109    4.2105    7.3543   C.3       1 RES1   0.0000
   125 C56       4.0120    3.9716    8.7404   C.3       1 RES1   0.0000
   126 C57       5.2520    3.0798    8.7095   C.3       1 RES1   0.0000
   127 C58       5.8669    2.9367   10.0956   C.3       1 RES1   0.0000
   128 H59      -0.7053   -1.1750   -6.4296   H         1 RES1   0.0000
   129 H60       0.2891   -1.1291   -4.9760   H         1 RES1   0.0000
   130 H61       0.8641   -0.3933   -6.4781   H         1 RES1   0.0000
   131 H62       0.4011   -3.3966   -6.0973   H         1 RES1   0.0000
   132 H63       0.9235   -2.6025   -7.5803   H         1 RES1   0.0000
   133 H64       2.9123   -3.4324   -6.6563   H         1 RES1   0.0000
   134 H65       2.9205   -1.7183   -6.2840   H         1 RES1   0.0000
   135 H66       1.9986   -2.3737   -3.9451   H         1 RES1   0.0000
   136 H67       2.2410   -4.0406   -4.4335   H         1 RES1   0.0000
   137 H68       4.1054   -3.2134   -3.0599   H         1 RES1   0.0000
   138 H69       4.6155   -3.7581   -4.6527   H         1 RES1   0.0000
   139 H70       5.8489   -1.8169   -4.0568   H         1 RES1   0.0000
   140 H71       4.8120   -1.3893   -5.4017   H         1 RES1   0.0000
   141 H72       4.0070   -0.8519   -2.5155   H         1 RES1   0.0000
   142 H73       5.0641    0.2507   -3.4022   H         1 RES1   0.0000
   143 H74       3.3099    0.5832   -5.1155   H         1 RES1   0.0000
   144 H75       2.1940   -0.4449   -4.2010   H         1 RES1   0.0000
   145 H76       4.2900    2.5941   -3.8518   H         1 RES1   0.0000
   146 H77       2.8088    2.7759   -4.7762   H         1 RES1   0.0000
   147 H78       2.9053    3.4639   -3.1567   H         1 RES1   0.0000
   148 H79       3.1956    2.5029   -0.9841   H         1 RES1   0.0000
   149 H80       1.6243    3.1875   -1.5490   H         1 RES1   0.0000
   150 H81       3.3419    2.3028    0.9812   H         1 RES1   0.0000
   151 H82       1.9306    3.1053    1.7275   H         1 RES1   0.0000
   152 H83       3.6102   -0.0517    4.9643   H         1 RES1   0.0000
   153 H84       2.4137   -0.8615    3.9460   H         1 RES1   0.0000
   154 H85       4.0397   -1.3423    2.2482   H         1 RES1   0.0000
   155 H86       5.1590   -0.1277    2.8454   H         1 RES1   0.0000
   156 H87       6.1898   -1.5926    4.2541   H         1 RES1   0.0000
   157 H88       4.6669   -2.1691    4.8866   H         1 RES1   0.0000
   158 H89       5.7410   -3.0466    2.1905   H         1 RES1   0.0000
   159 H90       6.1304   -3.8822    3.6843   H         1 RES1   0.0000
   160 H91       3.2213   -3.3866    3.0926   H         1 RES1   0.0000
   161 H92       4.0543   -4.6189    2.1517   H         1 RES1   0.0000
   162 H93       2.9805   -5.6807    3.9858   H         1 RES1   0.0000
   163 H94       4.7181   -5.7955    4.2074   H         1 RES1   0.0000
   164 H95       3.2923   -3.5226    5.5843   H         1 RES1   0.0000
   165 H96       3.0434   -5.1426    6.2002   H         1 RES1   0.0000
   166 H97       5.8034   -3.8797    5.9192   H         1 RES1   0.0000
   167 H98       4.8760   -4.0641    7.4025   H         1 RES1   0.0000
   168 H99       5.4321   -5.4857    6.5299   H         1 RES1   0.0000
   169 H100      4.4356    1.8061    4.5262   H         1 RES1   0.0000
   170 H101      4.4745    2.4782    2.9064   H         1 RES1   0.0000
   171 H102      3.8443    4.1169    4.5499   H         1 RES1   0.0000
   172 H103      2.5094    3.8822    3.4376   H         1 RES1   0.0000
   173 H104      1.4777    4.0270    5.5199   H         1 RES1   0.0000
   174 H105      1.5150    2.2914    5.1840   H         1 RES1   0.0000
   175 H106      2.1126    2.5183    7.4589   H         1 RES1   0.0000
   176 H107      3.6316    2.1946    6.6314   H         1 RES1   0.0000
   177 H108      4.1834    4.6310    6.7047   H         1 RES1   0.0000
   178 H109      2.6104    4.9504    7.4377   H         1 RES1   0.0000
   179 H110      4.2843    4.9355    9.1750   H         1 RES1   0.0000
   180 H111      3.2573    3.5190    9.3869   H         1 RES1   0.0000
   181 H112      4.9899    2.0863    8.3375   H         1 RES1   0.0000
   182 H113      5.9882    3.5122    8.0271   H         1 RES1   0.0000
   183 H114      5.1506    2.4968   10.7863   H         1 RES1   0.0000
   184 H115      6.7479    2.3001   10.0646   H         1 RES1   0.0000
   185 H116      6.1604    3.9093   10.4818   H         1 RES1   0.0000
   186 C59      -2.4617    1.8224   -5.9318   C.3       1 RES1   0.0000
   187 C60      -3.4557    1.2394   -6.9317   C.3       1 RES1   0.0000
   188 C61      -3.7096   -0.2567   -6.7354   C.3       1 RES1   0.0000
   189 C62      -4.3058   -0.5474   -5.3604   C.3       1 RES1   0.0000
   190 C63      -4.9798   -1.9122   -5.2325   C.3       1 RES1   0.0000
   191 C64      -4.0371   -3.1131   -5.2046   C.3       1 RES1   0.0000
   192 C65      -3.3276   -3.3272   -3.8554   C.3       1 RES1   0.0000
   193 C66      -1.9203   -2.7185   -3.8314   C.3       1 RES1   0.0000
   194 N5       -1.0413   -3.3046   -2.8218   N.am      1 RES1   0.0000
   195 C67      -0.6503   -4.6833   -3.0460   C.3       1 RES1   0.0000
   196 C68      -0.6274   -2.5988   -1.7777   C.2       1 RES1   0.0000
   197 O7       -0.9465   -1.4106   -1.5809   O.2       1 RES1   0.0000
   198 C69       0.3181   -3.2904   -0.7895   C.3       1 RES1   0.0000
   199 O8        0.6510   -2.4099    0.2791   O.3       1 RES1   0.0000
   200 C70       0.5223   -2.9598    1.5941   C.3       1 RES1   0.0000
   201 C71      -0.7123   -2.3355    2.2691   C.2       1 RES1   0.0000
   202 O9       -1.1324   -1.2660    1.7792   O.2       1 RES1   0.0000
   203 N6       -1.3108   -2.9334    3.2847   N.am      1 RES1   0.0000
   204 C72      -2.5846   -2.4085    3.7802   C.3       1 RES1   0.0000
   205 C73      -3.7573   -3.3626    3.5183   C.3       1 RES1   0.0000
   206 C74      -4.9355   -3.1309    4.4781   C.3       1 RES1   0.0000
   207 C75      -5.9913   -2.1648    3.9412   C.3       1 RES1   0.0000
   208 C76      -5.6662   -0.6758    4.1063   C.3       1 RES1   0.0000
   209 C77      -6.2792   -0.0299    5.3503   C.3       1 RES1   0.0000
   210 C78      -5.7334   -0.5519    6.6852   C.3       1 RES1   0.0000
   211 C79      -6.5889   -1.6513    7.3019   C.3       1 RES1   0.0000
   212 C80      -0.7383   -4.0473    4.0218   C.3       1 RES1   0.0000
   213 C81       0.5035   -3.6463    4.8194   C.3       1 RES1   0.0000
   214 C82       0.2055   -2.7104    5.9886   C.3       1 RES1   0.0000
   215 C83      -0.4735   -3.3942    7.1715   C.3       1 RES1   0.0000
   216 C84       0.4852   -4.3027    7.9383   C.3       1 RES1   0.0000
   217 C85      -0.1750   -4.9579    9.1489   C.3       1 RES1   0.0000
   218 C86      -1.2470   -5.9728    8.7570   C.3       1 RES1   0.0000
   219 C87      -1.7647   -6.7203    9.9779   C.3       1 RES1   0.0000
   220 H117     -2.2285    2.8502   -6.1955   H         1 RES1   0.0000
   221 H118     -2.8768    1.8199   -4.9252   H         1 RES1   0.0000
   222 H119     -1.5374    1.2489   -5.9285   H         1 RES1   0.0000
   223 H120     -4.4026    1.7758   -6.8409   H         1 RES1   0.0000
   224 H121     -3.0828    1.4029   -7.9431   H         1 RES1   0.0000
   225 H122     -4.4136   -0.5852   -7.4990   H         1 RES1   0.0000
   226 H123     -2.7800   -0.8079   -6.8850   H         1 RES1   0.0000
   227 H124     -3.5340   -0.4414   -4.5949   H         1 RES1   0.0000
   228 H125     -5.0672    0.2164   -5.1928   H         1 RES1   0.0000
   229 H126     -5.5839   -1.9271   -4.3215   H         1 RES1   0.0000
   230 H127     -5.6657   -2.0313   -6.0698   H         1 RES1   0.0000
   231 H128     -4.6306   -3.9993   -5.4246   H         1 RES1   0.0000
   232 H129     -3.3058   -3.0150   -6.0057   H         1 RES1   0.0000
   233 H130     -3.9291   -2.9036   -3.0504   H         1 RES1   0.0000
   234 H131     -3.2563   -4.3990   -3.6675   H         1 RES1   0.0000
   235 H132     -1.4591   -2.8884   -4.8053   H         1 RES1   0.0000
   236 H133     -1.9535   -1.6463   -3.6420   H         1 RES1   0.0000
   237 H134     -1.0319   -4.9993   -4.0153   H         1 RES1   0.0000
   238 H135      0.4364   -4.7952   -3.0577   H         1 RES1   0.0000
   239 H136     -1.0691   -5.3460   -2.2853   H         1 RES1   0.0000
   240 H137     -0.1477   -4.2065   -0.4140   H         1 RES1   0.0000
   241 H138      1.2410   -3.5493   -1.3259   H         1 RES1   0.0000
   242 H139      0.4673   -4.0518    1.5632   H         1 RES1   0.0000
   243 H140      1.4347   -2.6794    2.1345   H         1 RES1   0.0000
   244 H141     -2.4921   -2.2531    4.8561   H         1 RES1   0.0000
   245 H142     -2.7488   -1.4490    3.2888   H         1 RES1   0.0000
   246 H143     -4.1015   -3.2486    2.4897   H         1 RES1   0.0000
   247 H144     -3.4178   -4.3936    3.6291   H         1 RES1   0.0000
   248 H145     -5.4197   -4.0898    4.6589   H         1 RES1   0.0000
   249 H146     -4.5727   -2.7716    5.4388   H         1 RES1   0.0000
   250 H147     -6.1489   -2.3861    2.8843   H         1 RES1   0.0000
   251 H148     -6.9373   -2.3639    4.4416   H         1 RES1   0.0000
   252 H149     -4.5860   -0.5195    4.1201   H         1 RES1   0.0000
   253 H150     -6.0631   -0.1403    3.2446   H         1 RES1   0.0000
   254 H151     -6.0957    1.0462    5.2855   H         1 RES1   0.0000
   255 H152     -7.3595   -0.1765    5.3257   H         1 RES1   0.0000
   256 H153     -4.7092   -0.9071    6.5476   H         1 RES1   0.0000
   257 H154     -5.6932    0.2737    7.3979   H         1 RES1   0.0000
   258 H155     -6.6428   -2.5323    6.6705   H         1 RES1   0.0000
   259 H156     -6.1835   -1.9498    8.2647   H         1 RES1   0.0000
   260 H157     -7.5980   -1.2836    7.4615   H         1 RES1   0.0000
   261 H158     -1.5044   -4.3930    4.7142   H         1 RES1   0.0000
   262 H159     -0.4940   -4.8711    3.3455   H         1 RES1   0.0000
   263 H160      0.9653   -4.5559    5.1924   H         1 RES1   0.0000
   264 H161      1.2194   -3.1603    4.1597   H         1 RES1   0.0000
   265 H162      1.1444   -2.2770    6.3391   H         1 RES1   0.0000
   266 H163     -0.4164   -1.8939    5.6357   H         1 RES1   0.0000
   267 H164     -0.8435   -2.6279    7.8566   H         1 RES1   0.0000
   268 H165     -1.3333   -3.9747    6.8353   H         1 RES1   0.0000
   269 H166      0.8637   -5.0933    7.2855   H         1 RES1   0.0000
   270 H167      1.3404   -3.7074    8.2679   H         1 RES1   0.0000
   271 H168      0.5930   -5.4699    9.7319   H         1 RES1   0.0000
   272 H169     -0.6160   -4.1883    9.7851   H         1 RES1   0.0000
   273 H170     -2.0828   -5.4669    8.2677   H         1 RES1   0.0000
   274 H171     -0.8215   -6.6858    8.0455   H         1 RES1   0.0000
   275 H172     -2.1937   -6.0235   10.6945   H         1 RES1   0.0000
   276 H173     -2.5291   -7.4410    9.6987   H         1 RES1   0.0000
   277 H174     -0.9519   -7.2537   10.4645   H         1 RES1   0.0000
@<TRIPOS>BOND
     1     1    13    1
     2     1    15    1
     3     1    18    1
     4     1   105    1
     5     1   107    1
     6     1   110    1
     7     1   197    1
     8     1   199    1
     9     1   202    1
    10     2     3    1
    11     2    36    1
    12     2    37    1
    13     2    38    1
    14     3     4    1
    15     3    39    1
    16     3    40    1
    17     4     5    1
    18     4    41    1
    19     4    42    1
    20     5     6    1
    21     5    43    1
    22     5    44    1
    23     6     7    1
    24     6    45    1
    25     6    46    1
    26     7     8    1
    27     7    47    1
    28     7    48    1
    29     8     9    1
    30     8    49    1
    31     8    50    1
    32     9    10    1
    33     9    51    1
    34     9    52    1
    35    10    11    1
    36    10    12    1
    37    11    53    1
    38    11    54    1
    39    11    55    1
    40    12    13    2
    41    12    14    1
    42    14    15    1
    43    14    56    1
    44    14    57    1
    45    15    16    1
    46    16    17    1
    47    16    58    1
    48    16    59    1
    49    17    18    2
    50    17    19    1
    51    19    20    1
    52    19    28    1
    53    20    21    1
    54    20    60    1
    55    20    61    1
    56    21    22    1
    57    21    62    1
    58    21    63    1
    59    22    23    1
    60    22    64    1
    61    22    65    1
    62    23    24    1
    63    23    66    1
    64    23    67    1
    65    24    25    1
    66    24    68    1
    67    24    69    1
    68    25    26    1
    69    25    70    1
    70    25    71    1
    71    26    27    1
    72    26    72    1
    73    26    73    1
    74    27    74    1
    75    27    75    1
    76    27    76    1
    77    28    29    1
    78    28    77    1
    79    28    78    1
    80    29    30    1
    81    29    79    1
    82    29    80    1
    83    30    31    1
    84    30    81    1
    85    30    82    1
    86    31    32    1
    87    31    83    1
    88    31    84    1
    89    32    33    1
    90    32    85    1
    91    32    86    1
    92    33    34    1
    93    33    87    1
    94    33    88    1
    95    34    35    1
    96    34    89    1
    97    34    90    1
    98    35    91    1
    99    35    92    1
   100    35    93    1
   101    94    95    1
   102    94   128    1
   103    94   129    1
   104    94   130    1
   105    95    96    1
   106    95   131    1
   107    95   132    1
   108    96    97    1
   109    96   133    1
   110    96   134    1
   111    97    98    1
   112    97   135    1
   113    97   136    1
   114    98    99    1
   115    98   137    1
   116    98   138    1
   117    99   100    1
   118    99   139    1
   119    99   140    1
   120   100   101    1
   121   100   141    1
   122   100   142    1
   123   101   102    1
   124   101   143    1
   125   101   144    1
   126   102   103    1
   127   102   104    1
   128   103   145    1
   129   103   146    1
   130   103   147    1
   131   104   105    2
   132   104   106    1
   133   106   107    1
   134   106   148    1
   135   106   149    1
   136   107   108    1
   137   108   109    1
   138   108   150    1
   139   108   151    1
   140   109   110    2
   141   109   111    1
   142   111   112    1
   143   111   120    1
   144   112   113    1
   145   112   152    1
   146   112   153    1
   147   113   114    1
   148   113   154    1
   149   113   155    1
   150   114   115    1
   151   114   156    1
   152   114   157    1
   153   115   116    1
   154   115   158    1
   155   115   159    1
   156   116   117    1
   157   116   160    1
   158   116   161    1
   159   117   118    1
   160   117   162    1
   161   117   163    1
   162   118   119    1
   163   118   164    1
   164   118   165    1
   165   119   166    1
   166   119   167    1
   167   119   168    1
   168   120   121    1
   169   120   169    1
   170   120   170    1
   171   121   122    1
   172   121   171    1
   173   121   172    1
   174   122   123    1
   175   122   173    1
   176   122   174    1
   177   123   124    1
   178   123   175    1
   179   123   176    1
   180   124   125    1
   181   124   177    1
   182   124   178    1
   183   125   126    1
   184   125   179    1
   185   125   180    1
   186   126   127    1
   187   126   181    1
   188   126   182    1
   189   127   183    1
   190   127   184    1
   191   127   185    1
   192   186   187    1
   193   186   220    1
   194   186   221    1
   195   186   222    1
   196   187   188    1
   197   187   223    1
   198   187   224    1
   199   188   189    1
   200   188   225    1
   201   188   226    1
   202   189   190    1
   203   189   227    1
   204   189   228    1
   205   190   191    1
   206   190   229    1
   207   190   230    1
   208   191   192    1
   209   191   231    1
   210   191   232    1
   211   192   193    1
   212   192   233    1
   213   192   234    1
   214   193   194    1
   215   193   235    1
   216   193   236    1
   217   194   195    1
   218   194   196    1
   219   195   237    1
   220   195   238    1
   221   195   239    1
   222   196   197    2
   223   196   198    1
   224   198   199    1
   225   198   240    1
   226   198   241    1
   227   199   200    1
   228   200   201    1
   229   200   242    1
   230   200   243    1
   231   201   202    2
   232   201   203    1
   233   203   204    1
   234   203   212    1
   235   204   205    1
   236   204   244    1
   237   204   245    1
   238   205   206    1
   239   205   246    1
   240   205   247    1
   241   206   207    1
   242   206   248    1
   243   206   249    1
   244   207   208    1
   245   207   250    1
   246   207   251    1
   247   208   209    1
   248   208   252    1
   249   208   253    1
   250   209   210    1
   251   209   254    1
   252   209   255    1
   253   210   211    1
   254   210   256    1
   255   210   257    1
   256   211   258    1
   257   211   259    1
   258   211   260    1
   259   212   213    1
   260   212   261    1
   261   212   262    1
   262   213   214    1
   263   213   263    1
   264   213   264    1
   265   214   215    1
   266   214   265    1
   267   214   266    1
   268   215   216    1
   269   215   267    1
   270   215   268    1
   271   216   217    1
   272   216   269    1
   273   216   270    1
   274   217   218    1
   275   217   271    1
   276   217   272    1
   277   218   219    1
   278   218   273    1
   279   218   274    1
   280   219   275    1
   281   219   276    1
   282   219   277    1
@<TRIPOS>SUBSTRUCTURE
     1 RES1      277 GROUP             0 ****  ****    0  
