@<TRIPOS>MOLECULE
capped_square_antiprismatic_0_nunpairedes_0_charge_3 Charge: 3 Unpaired_Electrons: 5 XTB_Unpaired_Electrons: 0 XTB_Charge: 3
   260   263     1     0     0
SMALL
NoCharges
****
Generated from Architector

@<TRIPOS>ATOM
     1 Sm1       0.0064    0.0728    0.0046   Sm        1 RES1   0.0000
     2 C1       -0.8040   -0.6303    8.5314   C.3       1 RES1   0.0000
     3 C2       -1.8355    0.1053    7.6853   C.3       1 RES1   0.0000
     4 C3       -1.2936    0.3031    6.2701   C.3       1 RES1   0.0000
     5 C4       -2.3553    0.7411    5.2597   C.3       1 RES1   0.0000
     6 N1       -1.9786    0.4174    3.8952   N.am      1 RES1   0.0000
     7 C5       -2.6306   -0.7346    3.2853   C.3       1 RES1   0.0000
     8 C6       -2.1750   -2.0996    3.8191   C.3       1 RES1   0.0000
     9 C7       -2.9874   -2.6437    4.9939   C.3       1 RES1   0.0000
    10 C8       -2.4995   -4.0247    5.4109   C.3       1 RES1   0.0000
    11 C9       -1.1377    1.1459    3.1612   C.2       1 RES1   0.0000
    12 O1       -0.8896    0.8715    1.9758   O.2       1 RES1   0.0000
    13 C10      -0.4264    2.3540    3.7306   C.3       1 RES1   0.0000
    14 C11       1.0693    2.0911    4.0449   C.3       1 RES1   0.0000
    15 C12       1.8042    1.0662    3.1770   C.2       1 RES1   0.0000
    16 O2        1.6960    1.0964    1.9423   O.2       1 RES1   0.0000
    17 N2        2.5836    0.1602    3.8013   N.am      1 RES1   0.0000
    18 C13       3.4762   -0.7612    3.0811   C.3       1 RES1   0.0000
    19 C14       4.1675   -0.2618    1.8165   C.3       1 RES1   0.0000
    20 C15       5.1518    0.8773    2.0629   C.3       1 RES1   0.0000
    21 C16       6.1091    1.0482    0.8910   C.3       1 RES1   0.0000
    22 C17       2.4835   -0.1357    5.2295   C.3       1 RES1   0.0000
    23 C18       3.3528    0.7639    6.1061   C.3       1 RES1   0.0000
    24 C19       4.8417    0.5652    5.8334   C.3       1 RES1   0.0000
    25 C20       5.6895    1.3265    6.8386   C.3       1 RES1   0.0000
    26 H1       -1.1661   -0.7523    9.5458   H         1 RES1   0.0000
    27 H2        0.1298   -0.0740    8.5654   H         1 RES1   0.0000
    28 H3       -0.6101   -1.6163    8.1121   H         1 RES1   0.0000
    29 H4       -2.0754    1.0721    8.1295   H         1 RES1   0.0000
    30 H5       -2.7568   -0.4793    7.6503   H         1 RES1   0.0000
    31 H6       -0.8726   -0.6481    5.9377   H         1 RES1   0.0000
    32 H7       -0.4871    1.0356    6.3049   H         1 RES1   0.0000
    33 H8       -2.5689    1.8092    5.3447   H         1 RES1   0.0000
    34 H9       -3.2801    0.2040    5.4579   H         1 RES1   0.0000
    35 H10      -2.4272   -0.6797    2.2110   H         1 RES1   0.0000
    36 H11      -3.7005   -0.6315    3.4610   H         1 RES1   0.0000
    37 H12      -1.1237   -2.0569    4.0964   H         1 RES1   0.0000
    38 H13      -2.2553   -2.8119    2.9973   H         1 RES1   0.0000
    39 H14      -4.0382   -2.7098    4.7094   H         1 RES1   0.0000
    40 H15      -2.9157   -1.9826    5.8539   H         1 RES1   0.0000
    41 H16      -2.6279   -4.7384    4.6029   H         1 RES1   0.0000
    42 H17      -3.0608   -4.3804    6.2684   H         1 RES1   0.0000
    43 H18      -1.4481   -4.0009    5.6840   H         1 RES1   0.0000
    44 H19      -0.8869    2.7535    4.6302   H         1 RES1   0.0000
    45 H20      -0.5059    3.1069    2.9477   H         1 RES1   0.0000
    46 H21       1.1462    1.8616    5.0996   H         1 RES1   0.0000
    47 H22       1.6158    3.0248    3.8856   H         1 RES1   0.0000
    48 H23       2.9182   -1.6717    2.8312   H         1 RES1   0.0000
    49 H24       4.2597   -1.0505    3.7848   H         1 RES1   0.0000
    50 H25       3.4395    0.0366    1.0572   H         1 RES1   0.0000
    51 H26       4.7201   -1.1229    1.4354   H         1 RES1   0.0000
    52 H27       5.7478    0.6560    2.9481   H         1 RES1   0.0000
    53 H28       4.5986    1.8016    2.2424   H         1 RES1   0.0000
    54 H29       6.8148    0.2245    0.8577   H         1 RES1   0.0000
    55 H30       6.6820    1.9647    0.9929   H         1 RES1   0.0000
    56 H31       5.5685    1.0713   -0.0508   H         1 RES1   0.0000
    57 H32       2.8065   -1.1687    5.3758   H         1 RES1   0.0000
    58 H33       1.4391   -0.0830    5.5456   H         1 RES1   0.0000
    59 H34       3.1420    0.5269    7.1502   H         1 RES1   0.0000
    60 H35       3.1018    1.8128    5.9384   H         1 RES1   0.0000
    61 H36       5.0600    0.9316    4.8298   H         1 RES1   0.0000
    62 H37       5.0897   -0.4992    5.8875   H         1 RES1   0.0000
    63 H38       5.4733    2.3888    6.7820   H         1 RES1   0.0000
    64 H39       6.7452    1.1791    6.6374   H         1 RES1   0.0000
    65 H40       5.4806    0.9804    7.8460   H         1 RES1   0.0000
    66 C21      -1.6095    0.4021   -8.5582   C.3       1 RES1   0.0000
    67 C22      -1.8498   -0.7846   -7.6342   C.3       1 RES1   0.0000
    68 C23      -0.7673   -0.8829   -6.5570   C.3       1 RES1   0.0000
    69 C24      -1.0662   -1.9592   -5.4928   C.3       1 RES1   0.0000
    70 N3       -1.5408   -1.3639   -4.2544   N.am      1 RES1   0.0000
    71 C25      -2.9507   -0.9934   -4.2231   C.3       1 RES1   0.0000
    72 C26      -3.1980    0.5118   -4.3178   C.3       1 RES1   0.0000
    73 C27      -4.6050    0.8443   -4.8091   C.3       1 RES1   0.0000
    74 C28      -4.7988    2.3475   -4.9471   C.3       1 RES1   0.0000
    75 C29      -0.7492   -1.0400   -3.2299   C.2       1 RES1   0.0000
    76 O3       -1.1542   -0.3796   -2.2536   O.2       1 RES1   0.0000
    77 C30       0.7154   -1.4443   -3.2283   C.3       1 RES1   0.0000
    78 C31       1.5693   -0.3624   -3.9070   C.3       1 RES1   0.0000
    79 C32       1.5184    0.9413   -3.1163   C.2       1 RES1   0.0000
    80 O4        1.3503    0.8694   -1.8806   O.2       1 RES1   0.0000
    81 N4        1.6746    2.1055   -3.7527   N.am      1 RES1   0.0000
    82 C33       1.6453    3.3647   -3.0008   C.3       1 RES1   0.0000
    83 C34       2.5608    3.4778   -1.7831   C.3       1 RES1   0.0000
    84 C35       4.0519    3.4048   -2.0883   C.3       1 RES1   0.0000
    85 C36       4.9112    3.6480   -0.8561   C.3       1 RES1   0.0000
    86 C37       1.6941    2.2643   -5.2060   C.3       1 RES1   0.0000
    87 C38       3.0800    2.1840   -5.8592   C.3       1 RES1   0.0000
    88 C39       3.9599    3.4065   -5.5896   C.3       1 RES1   0.0000
    89 C40       5.2235    3.4184   -6.4404   C.3       1 RES1   0.0000
    90 H41      -2.3530    0.4147   -9.3488   H         1 RES1   0.0000
    91 H42      -0.6244    0.3410   -9.0124   H         1 RES1   0.0000
    92 H43      -1.6784    1.3372   -8.0062   H         1 RES1   0.0000
    93 H44      -1.8496   -1.7084   -8.2143   H         1 RES1   0.0000
    94 H45      -2.8332   -0.6816   -7.1716   H         1 RES1   0.0000
    95 H46      -0.6748    0.0917   -6.0664   H         1 RES1   0.0000
    96 H47       0.1845   -1.1110   -7.0415   H         1 RES1   0.0000
    97 H48      -0.1783   -2.5551   -5.2931   H         1 RES1   0.0000
    98 H49      -1.8242   -2.6461   -5.8816   H         1 RES1   0.0000
    99 H50      -3.3870   -1.3544   -3.2910   H         1 RES1   0.0000
   100 H51      -3.4381   -1.5103   -5.0476   H         1 RES1   0.0000
   101 H52      -2.4729    0.9557   -4.9989   H         1 RES1   0.0000
   102 H53      -3.0374    0.9367   -3.3299   H         1 RES1   0.0000
   103 H54      -5.3450    0.4294   -4.1222   H         1 RES1   0.0000
   104 H55      -4.7598    0.3841   -5.7851   H         1 RES1   0.0000
   105 H56      -4.6897    2.8534   -3.9916   H         1 RES1   0.0000
   106 H57      -5.7873    2.5708   -5.3310   H         1 RES1   0.0000
   107 H58      -4.0666    2.7656   -5.6311   H         1 RES1   0.0000
   108 H59       0.9008   -2.4081   -3.6981   H         1 RES1   0.0000
   109 H60       0.9810   -1.5068   -2.1652   H         1 RES1   0.0000
   110 H61       1.2406   -0.2389   -4.9321   H         1 RES1   0.0000
   111 H62       2.6099   -0.6913   -3.9399   H         1 RES1   0.0000
   112 H63       0.6172    3.5354   -2.6599   H         1 RES1   0.0000
   113 H64       1.9084    4.1564   -3.7028   H         1 RES1   0.0000
   114 H65       2.2986    2.7166   -1.0460   H         1 RES1   0.0000
   115 H66       2.3379    4.4578   -1.3636   H         1 RES1   0.0000
   116 H67       4.3092    4.1704   -2.8190   H         1 RES1   0.0000
   117 H68       4.2841    2.4217   -2.5016   H         1 RES1   0.0000
   118 H69       4.9102    4.6991   -0.5896   H         1 RES1   0.0000
   119 H70       5.9420    3.3693   -1.0523   H         1 RES1   0.0000
   120 H71       4.5427    3.0738   -0.0124   H         1 RES1   0.0000
   121 H72       1.2677    3.2448   -5.4315   H         1 RES1   0.0000
   122 H73       1.0397    1.5245   -5.6692   H         1 RES1   0.0000
   123 H74       2.9269    2.1056   -6.9367   H         1 RES1   0.0000
   124 H75       3.5977    1.2822   -5.5244   H         1 RES1   0.0000
   125 H76       4.2550    3.3949   -4.5463   H         1 RES1   0.0000
   126 H77       3.3935    4.3219   -5.7814   H         1 RES1   0.0000
   127 H78       5.7892    2.5037   -6.2885   H         1 RES1   0.0000
   128 H79       5.8533    4.2597   -6.1631   H         1 RES1   0.0000
   129 H80       4.9828    3.5104   -7.4945   H         1 RES1   0.0000
   130 C41      -6.4753    5.7571    1.0242   C.3       1 RES1   0.0000
   131 C42      -6.5904    4.4497    0.2496   C.3       1 RES1   0.0000
   132 C43      -5.2124    3.9896   -0.2290   C.3       1 RES1   0.0000
   133 C44      -5.2101    2.5725   -0.8296   C.3       1 RES1   0.0000
   134 N5       -4.3264    1.6326   -0.1598   N.am      1 RES1   0.0000
   135 C45      -4.9555    0.7887    0.8505   C.3       1 RES1   0.0000
   136 C46      -5.0687    1.5423    2.1797   C.3       1 RES1   0.0000
   137 C47      -6.0321    0.9070    3.1820   C.3       1 RES1   0.0000
   138 C48      -6.0978    1.7309    4.4630   C.3       1 RES1   0.0000
   139 C49      -3.0301    1.4709   -0.4450   C.2       1 RES1   0.0000
   140 O5       -2.3850    0.5083    0.0080   O.2       1 RES1   0.0000
   141 C50      -2.3169    2.4618   -1.3566   C.3       1 RES1   0.0000
   142 C51      -1.8739    3.7749   -0.6820   C.3       1 RES1   0.0000
   143 C52      -0.5602    3.6480    0.0808   C.2       1 RES1   0.0000
   144 O6        0.0639    2.5766    0.0180   O.2       1 RES1   0.0000
   145 N6       -0.1056    4.7260    0.7556   N.am      1 RES1   0.0000
   146 C53       1.0875    4.5529    1.6004   C.3       1 RES1   0.0000
   147 C54       2.4409    5.2024    1.2449   C.3       1 RES1   0.0000
   148 C55       2.4807    6.6448    0.7554   C.3       1 RES1   0.0000
   149 C56       3.9090    7.1488    0.5649   C.3       1 RES1   0.0000
   150 C57      -0.9945    5.8336    1.1315   C.3       1 RES1   0.0000
   151 C58      -1.4480    6.8463    0.0705   C.3       1 RES1   0.0000
   152 C59      -0.3882    7.8832   -0.2931   C.3       1 RES1   0.0000
   153 C60      -0.9746    9.1174   -0.9604   C.3       1 RES1   0.0000
   154 H81      -7.4564    6.0836    1.3520   H         1 RES1   0.0000
   155 H82      -6.0411    6.5370    0.4033   H         1 RES1   0.0000
   156 H83      -5.8459    5.6264    1.9038   H         1 RES1   0.0000
   157 H84      -7.2510    4.5788   -0.6092   H         1 RES1   0.0000
   158 H85      -7.0298    3.6864    0.8968   H         1 RES1   0.0000
   159 H86      -4.5366    4.0108    0.6286   H         1 RES1   0.0000
   160 H87      -4.8385    4.7036   -0.9644   H         1 RES1   0.0000
   161 H88      -4.9549    2.6105   -1.8883   H         1 RES1   0.0000
   162 H89      -6.2137    2.1491   -0.7734   H         1 RES1   0.0000
   163 H90      -4.3658   -0.1222    0.9587   H         1 RES1   0.0000
   164 H91      -5.9472    0.5101    0.4950   H         1 RES1   0.0000
   165 H92      -5.4374    2.5469    1.9821   H         1 RES1   0.0000
   166 H93      -4.0708    1.6358    2.6139   H         1 RES1   0.0000
   167 H94      -5.7345   -0.1170    3.4155   H         1 RES1   0.0000
   168 H95      -7.0287    0.8566    2.7421   H         1 RES1   0.0000
   169 H96      -5.1352    1.7457    4.9681   H         1 RES1   0.0000
   170 H97      -6.8368    1.3192    5.1432   H         1 RES1   0.0000
   171 H98      -6.3765    2.7574    4.2400   H         1 RES1   0.0000
   172 H99      -2.9457    2.7143   -2.2100   H         1 RES1   0.0000
   173 H100     -1.4246    1.9315   -1.7251   H         1 RES1   0.0000
   174 H101     -2.6570    4.1504   -0.0273   H         1 RES1   0.0000
   175 H102     -1.7222    4.5128   -1.4717   H         1 RES1   0.0000
   176 H103      1.2762    3.4760    1.6188   H         1 RES1   0.0000
   177 H104      0.8168    4.8985    2.6002   H         1 RES1   0.0000
   178 H105      2.9369    4.5895    0.5045   H         1 RES1   0.0000
   179 H106      3.0435    5.1454    2.1549   H         1 RES1   0.0000
   180 H107      1.9706    7.3032    1.4561   H         1 RES1   0.0000
   181 H108      1.9764    6.7037   -0.2049   H         1 RES1   0.0000
   182 H109      4.4105    6.5986   -0.2271   H         1 RES1   0.0000
   183 H110      3.9058    8.1982    0.2786   H         1 RES1   0.0000
   184 H111      4.4865    7.0420    1.4791   H         1 RES1   0.0000
   185 H112     -0.4753    6.4052    1.9021   H         1 RES1   0.0000
   186 H113     -1.8941    5.4115    1.5981   H         1 RES1   0.0000
   187 H114     -2.2994    7.3709    0.5094   H         1 RES1   0.0000
   188 H115     -1.8015    6.3676   -0.8389   H         1 RES1   0.0000
   189 H116      0.3410    7.4311   -0.9658   H         1 RES1   0.0000
   190 H117      0.1213    8.1981    0.6168   H         1 RES1   0.0000
   191 H118     -1.4597    8.8575   -1.8959   H         1 RES1   0.0000
   192 H119     -0.1853    9.8343   -1.1666   H         1 RES1   0.0000
   193 H120     -1.6991    9.5929   -0.3068   H         1 RES1   0.0000
   194 C61      -0.7867   -8.8672   -0.5553   C.3       1 RES1   0.0000
   195 C62      -1.7479   -7.9728    0.2185   C.3       1 RES1   0.0000
   196 C63      -1.1722   -6.5596    0.3337   C.3       1 RES1   0.0000
   197 C64      -2.1426   -5.5318    0.9403   C.3       1 RES1   0.0000
   198 N7       -1.9832   -4.1913    0.3746   N.am      1 RES1   0.0000
   199 C65      -3.0679   -3.6640   -0.4434   C.3       1 RES1   0.0000
   200 C66      -2.7912   -3.8325   -1.9375   C.3       1 RES1   0.0000
   201 C67      -3.0525   -5.2251   -2.5070   C.3       1 RES1   0.0000
   202 C68      -2.3960   -5.3640   -3.8744   C.3       1 RES1   0.0000
   203 C69      -0.9162   -3.4077    0.5520   C.2       1 RES1   0.0000
   204 O7       -0.8269   -2.2819    0.0170   O.2       1 RES1   0.0000
   205 C70       0.1817   -3.8938    1.4709   C.3       1 RES1   0.0000
   206 C71       1.5002   -4.2013    0.7548   C.3       1 RES1   0.0000
   207 C72       2.2136   -3.0830    0.0172   C.2       1 RES1   0.0000
   208 O8        1.8771   -1.8816    0.1235   O.2       1 RES1   0.0000
   209 N8        3.2562   -3.4678   -0.7371   N.am      1 RES1   0.0000
   210 C73       3.8568   -2.4805   -1.6451   C.3       1 RES1   0.0000
   211 C74       5.2236   -1.8987   -1.2513   C.3       1 RES1   0.0000
   212 C75       6.2037   -2.9117   -0.6801   C.3       1 RES1   0.0000
   213 C76       7.5101   -2.2946   -0.2010   C.3       1 RES1   0.0000
   214 C77       3.5757   -4.8748   -1.0482   C.3       1 RES1   0.0000
   215 C78       3.9333   -5.9123    0.0368   C.3       1 RES1   0.0000
   216 C79       5.2837   -5.7487    0.7318   C.3       1 RES1   0.0000
   217 C80       5.6590   -7.0003    1.5162   C.3       1 RES1   0.0000
   218 H121     -1.1729   -9.8791   -0.6201   H         1 RES1   0.0000
   219 H122      0.1830   -8.8997   -0.0655   H         1 RES1   0.0000
   220 H123     -0.6512   -8.4869   -1.5655   H         1 RES1   0.0000
   221 H124     -1.9299   -8.3876    1.2100   H         1 RES1   0.0000
   222 H125     -2.7066   -7.9437   -0.2997   H         1 RES1   0.0000
   223 H126     -0.8995   -6.2245   -0.6688   H         1 RES1   0.0000
   224 H127     -0.2554   -6.6201    0.9205   H         1 RES1   0.0000
   225 H128     -2.0461   -5.5074    2.0313   H         1 RES1   0.0000
   226 H129     -3.1651   -5.8457    0.7301   H         1 RES1   0.0000
   227 H130     -3.1515   -2.5912   -0.2339   H         1 RES1   0.0000
   228 H131     -3.9974   -4.1591   -0.1615   H         1 RES1   0.0000
   229 H132     -1.7527   -3.5420   -2.1198   H         1 RES1   0.0000
   230 H133     -3.4299   -3.1326   -2.4711   H         1 RES1   0.0000
   231 H134     -4.1282   -5.3799   -2.5969   H         1 RES1   0.0000
   232 H135     -2.6676   -5.9955   -1.8446   H         1 RES1   0.0000
   233 H136     -2.7805   -4.6076   -4.5528   H         1 RES1   0.0000
   234 H137     -2.5965   -6.3395   -4.3062   H         1 RES1   0.0000
   235 H138     -1.3178   -5.2330   -3.7898   H         1 RES1   0.0000
   236 H139     -0.1176   -4.7898    2.0038   H         1 RES1   0.0000
   237 H140      0.3218   -3.1080    2.2099   H         1 RES1   0.0000
   238 H141      1.3326   -5.0186    0.0489   H         1 RES1   0.0000
   239 H142      2.1906   -4.5478    1.5251   H         1 RES1   0.0000
   240 H143      3.1618   -1.6383   -1.7016   H         1 RES1   0.0000
   241 H144      3.9324   -2.9469   -2.6299   H         1 RES1   0.0000
   242 H145      5.0633   -1.1204   -0.5141   H         1 RES1   0.0000
   243 H146      5.6591   -1.4245   -2.1321   H         1 RES1   0.0000
   244 H147      6.4215   -3.6764   -1.4248   H         1 RES1   0.0000
   245 H148      5.7203   -3.3784    0.1717   H         1 RES1   0.0000
   246 H149      7.9607   -1.6788   -0.9735   H         1 RES1   0.0000
   247 H150      8.2125   -3.0760    0.0764   H         1 RES1   0.0000
   248 H151      7.3370   -1.6845    0.6810   H         1 RES1   0.0000
   249 H152      4.4292   -4.8497   -1.7279   H         1 RES1   0.0000
   250 H153      2.7284   -5.2944   -1.6069   H         1 RES1   0.0000
   251 H154      3.9618   -6.8610   -0.5045   H         1 RES1   0.0000
   252 H155      3.1707   -6.0316    0.8020   H         1 RES1   0.0000
   253 H156      5.2540   -4.8971    1.4164   H         1 RES1   0.0000
   254 H157      6.0550   -5.5717   -0.0161   H         1 RES1   0.0000
   255 H158      4.9403   -7.1925    2.3083   H         1 RES1   0.0000
   256 H159      6.6427   -6.8795    1.9617   H         1 RES1   0.0000
   257 H160      5.6891   -7.8617    0.8550   H         1 RES1   0.0000
   258 O9        0.4285   -1.2700    2.4595   O.3       1 RES1   0.0000
   259 H161      1.2284   -1.1606    1.9134   H         1 RES1   0.0000
   260 H162      0.5049   -0.7248    3.2519   H         1 RES1   0.0000
@<TRIPOS>BOND
     1     1    12    1
     2     1    16    1
     3     1    76    1
     4     1    80    1
     5     1   140    1
     6     1   144    1
     7     1   204    1
     8     1   208    1
     9     1   258    1
    10     2     3    1
    11     2    26    1
    12     2    27    1
    13     2    28    1
    14     3     4    1
    15     3    29    1
    16     3    30    1
    17     4     5    1
    18     4    31    1
    19     4    32    1
    20     5     6    1
    21     5    33    1
    22     5    34    1
    23     6     7    1
    24     6    11    1
    25     7     8    1
    26     7    35    1
    27     7    36    1
    28     8     9    1
    29     8    37    1
    30     8    38    1
    31     9    10    1
    32     9    39    1
    33     9    40    1
    34    10    41    1
    35    10    42    1
    36    10    43    1
    37    11    12    2
    38    11    13    1
    39    13    14    1
    40    13    44    1
    41    13    45    1
    42    14    15    1
    43    14    46    1
    44    14    47    1
    45    15    16    2
    46    15    17    1
    47    17    18    1
    48    17    22    1
    49    18    19    1
    50    18    48    1
    51    18    49    1
    52    19    20    1
    53    19    50    1
    54    19    51    1
    55    20    21    1
    56    20    52    1
    57    20    53    1
    58    21    54    1
    59    21    55    1
    60    21    56    1
    61    22    23    1
    62    22    57    1
    63    22    58    1
    64    23    24    1
    65    23    59    1
    66    23    60    1
    67    24    25    1
    68    24    61    1
    69    24    62    1
    70    25    63    1
    71    25    64    1
    72    25    65    1
    73    66    67    1
    74    66    90    1
    75    66    91    1
    76    66    92    1
    77    67    68    1
    78    67    93    1
    79    67    94    1
    80    68    69    1
    81    68    95    1
    82    68    96    1
    83    69    70    1
    84    69    97    1
    85    69    98    1
    86    70    71    1
    87    70    75    1
    88    71    72    1
    89    71    99    1
    90    71   100    1
    91    72    73    1
    92    72   101    1
    93    72   102    1
    94    73    74    1
    95    73   103    1
    96    73   104    1
    97    74   105    1
    98    74   106    1
    99    74   107    1
   100    75    76    2
   101    75    77    1
   102    77    78    1
   103    77   108    1
   104    77   109    1
   105    78    79    1
   106    78   110    1
   107    78   111    1
   108    79    80    2
   109    79    81    1
   110    81    82    1
   111    81    86    1
   112    82    83    1
   113    82   112    1
   114    82   113    1
   115    83    84    1
   116    83   114    1
   117    83   115    1
   118    84    85    1
   119    84   116    1
   120    84   117    1
   121    85   118    1
   122    85   119    1
   123    85   120    1
   124    86    87    1
   125    86   121    1
   126    86   122    1
   127    87    88    1
   128    87   123    1
   129    87   124    1
   130    88    89    1
   131    88   125    1
   132    88   126    1
   133    89   127    1
   134    89   128    1
   135    89   129    1
   136   130   131    1
   137   130   154    1
   138   130   155    1
   139   130   156    1
   140   131   132    1
   141   131   157    1
   142   131   158    1
   143   132   133    1
   144   132   159    1
   145   132   160    1
   146   133   134    1
   147   133   161    1
   148   133   162    1
   149   134   135    1
   150   134   139    1
   151   135   136    1
   152   135   163    1
   153   135   164    1
   154   136   137    1
   155   136   165    1
   156   136   166    1
   157   137   138    1
   158   137   167    1
   159   137   168    1
   160   138   169    1
   161   138   170    1
   162   138   171    1
   163   139   140    2
   164   139   141    1
   165   141   142    1
   166   141   172    1
   167   141   173    1
   168   142   143    1
   169   142   174    1
   170   142   175    1
   171   143   144    2
   172   143   145    1
   173   145   146    1
   174   145   150    1
   175   146   147    1
   176   146   176    1
   177   146   177    1
   178   147   148    1
   179   147   178    1
   180   147   179    1
   181   148   149    1
   182   148   180    1
   183   148   181    1
   184   149   182    1
   185   149   183    1
   186   149   184    1
   187   150   151    1
   188   150   185    1
   189   150   186    1
   190   151   152    1
   191   151   187    1
   192   151   188    1
   193   152   153    1
   194   152   189    1
   195   152   190    1
   196   153   191    1
   197   153   192    1
   198   153   193    1
   199   194   195    1
   200   194   218    1
   201   194   219    1
   202   194   220    1
   203   195   196    1
   204   195   221    1
   205   195   222    1
   206   196   197    1
   207   196   223    1
   208   196   224    1
   209   197   198    1
   210   197   225    1
   211   197   226    1
   212   198   199    1
   213   198   203    1
   214   199   200    1
   215   199   227    1
   216   199   228    1
   217   200   201    1
   218   200   229    1
   219   200   230    1
   220   201   202    1
   221   201   231    1
   222   201   232    1
   223   202   233    1
   224   202   234    1
   225   202   235    1
   226   203   204    2
   227   203   205    1
   228   205   206    1
   229   205   236    1
   230   205   237    1
   231   206   207    1
   232   206   238    1
   233   206   239    1
   234   207   208    2
   235   207   209    1
   236   209   210    1
   237   209   214    1
   238   210   211    1
   239   210   240    1
   240   210   241    1
   241   211   212    1
   242   211   242    1
   243   211   243    1
   244   212   213    1
   245   212   244    1
   246   212   245    1
   247   213   246    1
   248   213   247    1
   249   213   248    1
   250   214   215    1
   251   214   249    1
   252   214   250    1
   253   215   216    1
   254   215   251    1
   255   215   252    1
   256   216   217    1
   257   216   253    1
   258   216   254    1
   259   217   255    1
   260   217   256    1
   261   217   257    1
   262   258   259    1
   263   258   260    1
@<TRIPOS>SUBSTRUCTURE
     1 RES1      260 GROUP             0 ****  ****    0  
