@<TRIPOS>MOLECULE
am_c3_9H2O_c0_0_nunpairedes_0_charge_3 Charge: 3 Unpaired_Electrons: 5 XTB_Unpaired_Electrons: 0 XTB_Charge: 3
   148   161     1     0     0
SMALL
NoCharges
****
Generated from Architector

@<TRIPOS>ATOM
     1 Sm1       0.0473    0.0174    0.0067   Sm        1 RES1   0.0000
     2 C1       -1.2784   -5.2496    4.0785   C.3       1 RES1   0.0000
     3 C2       -0.2778   -4.6421    3.0938   C.3       1 RES1   0.0000
     4 N1       -0.8478   -3.9475    1.9385   N.am      1 RES1   0.0000
     5 C3       -0.5715   -2.6418    1.7256   C.2       1 RES1   0.0000
     6 O1       -0.4098   -2.1888    0.5706   O.2       1 RES1   0.0000
     7 C4       -0.4625   -1.6245    2.8460   C.ar      1 RES1   0.0000
     8 C5       -0.6926   -1.8272    4.2071   C.ar      1 RES1   0.0000
     9 C6       -0.4967   -0.7670    5.0802   C.ar      1 RES1   0.0000
    10 C7       -0.1185    0.4701    4.5921   C.ar      1 RES1   0.0000
    11 C8        0.0131    0.6371    3.2092   C.ar      1 RES1   0.0000
    12 C9        0.3663    1.9612    2.6097   C.ar      1 RES1   0.0000
    13 C10       0.5371    3.1085    3.3911   C.ar      1 RES1   0.0000
    14 C11       0.7608    4.3263    2.7688   C.ar      1 RES1   0.0000
    15 C12       0.8348    4.3857    1.3869   C.ar      1 RES1   0.0000
    16 C13       0.7844    3.1874    0.6745   C.ar      1 RES1   0.0000
    17 C14       0.9105    3.0412   -0.8220   C.2       1 RES1   0.0000
    18 O2        0.8445    1.8806   -1.2857   O.2       1 RES1   0.0000
    19 N2        0.9841    4.1177   -1.6193   N.am      1 RES1   0.0000
    20 C15       0.6993    3.9671   -3.0456   C.3       1 RES1   0.0000
    21 C16      -0.7560    4.2730   -3.3893   C.3       1 RES1   0.0000
    22 C17       1.7014    5.2948   -1.2780   C.ar      1 RES1   0.0000
    23 C18       2.9042    5.1459   -0.5969   C.ar      1 RES1   0.0000
    24 C19       3.6752    6.2462   -0.2706   C.ar      1 RES1   0.0000
    25 C20       4.9479    6.0956    0.4940   C.3       1 RES1   0.0000
    26 C21       3.2411    7.5060   -0.6701   C.ar      1 RES1   0.0000
    27 C22       2.0762    7.6694   -1.4026   C.ar      1 RES1   0.0000
    28 C23       1.6246    9.0249   -1.8369   C.3       1 RES1   0.0000
    29 C24       1.3075    6.5488   -1.7103   C.ar      1 RES1   0.0000
    30 N3        0.5298    2.0184    1.2813   N.ar      1 RES1   0.0000
    31 N4       -0.1661   -0.3966    2.3788   N.ar      1 RES1   0.0000
    32 C25      -1.4236   -4.7690    0.9114   C.ar      1 RES1   0.0000
    33 C26      -1.3575   -6.1631    0.9561   C.ar      1 RES1   0.0000
    34 C27      -1.9711   -6.9463   -0.0141   C.ar      1 RES1   0.0000
    35 C28      -1.9447   -8.4397    0.0262   C.3       1 RES1   0.0000
    36 C29      -2.6329   -6.3260   -1.0646   C.ar      1 RES1   0.0000
    37 C30      -2.7162   -4.9483   -1.1339   C.ar      1 RES1   0.0000
    38 C31      -3.4253   -4.2914   -2.2774   C.3       1 RES1   0.0000
    39 C32      -2.1277   -4.1833   -0.1376   C.ar      1 RES1   0.0000
    40 H1       -0.7246   -5.6426    4.9297   H         1 RES1   0.0000
    41 H2       -1.8465   -6.0723    3.6521   H         1 RES1   0.0000
    42 H3       -2.0020   -4.5204    4.4342   H         1 RES1   0.0000
    43 H4        0.3551   -5.4417    2.6982   H         1 RES1   0.0000
    44 H5        0.3993   -3.9564    3.6062   H         1 RES1   0.0000
    45 H6       -1.0205   -2.7632    4.6215   H         1 RES1   0.0000
    46 H7       -0.6240   -0.9050    6.1435   H         1 RES1   0.0000
    47 H8        0.0533    1.2745    5.2875   H         1 RES1   0.0000
    48 H9        0.4913    3.0747    4.4668   H         1 RES1   0.0000
    49 H10       0.8739    5.2253    3.3575   H         1 RES1   0.0000
    50 H11       0.9438    5.3408    0.9017   H         1 RES1   0.0000
    51 H12       0.9344    2.9375   -3.3186   H         1 RES1   0.0000
    52 H13       1.3514    4.6428   -3.5980   H         1 RES1   0.0000
    53 H14      -1.4176    3.6210   -2.8314   H         1 RES1   0.0000
    54 H15      -0.9070    4.1114   -4.4539   H         1 RES1   0.0000
    55 H16      -1.0286    5.3010   -3.1644   H         1 RES1   0.0000
    56 H17       3.2327    4.1539   -0.3356   H         1 RES1   0.0000
    57 H18       5.1242    5.0643    0.7859   H         1 RES1   0.0000
    58 H19       4.9184    6.7105    1.3911   H         1 RES1   0.0000
    59 H20       5.7904    6.4317   -0.1066   H         1 RES1   0.0000
    60 H21       3.8326    8.3703   -0.4111   H         1 RES1   0.0000
    61 H22       2.3035    9.8014   -1.4967   H         1 RES1   0.0000
    62 H23       0.6345    9.2355   -1.4376   H         1 RES1   0.0000
    63 H24       1.5590    9.0781   -2.9215   H         1 RES1   0.0000
    64 H25       0.4109    6.6806   -2.2882   H         1 RES1   0.0000
    65 H26      -0.8403   -6.6905    1.7366   H         1 RES1   0.0000
    66 H27      -1.4494   -8.8283    0.9091   H         1 RES1   0.0000
    67 H28      -1.4377   -8.8300   -0.8548   H         1 RES1   0.0000
    68 H29      -2.9628   -8.8242    0.0067   H         1 RES1   0.0000
    69 H30      -3.0899   -6.9280   -1.8330   H         1 RES1   0.0000
    70 H31      -3.8337   -5.0361   -2.9545   H         1 RES1   0.0000
    71 H32      -2.7366   -3.6586   -2.8352   H         1 RES1   0.0000
    72 H33      -4.2431   -3.6710   -1.9184   H         1 RES1   0.0000
    73 H34      -2.2247   -3.1138   -0.1922   H         1 RES1   0.0000
    74 C33       5.3750   -3.9270    0.9292   C.3       1 RES1   0.0000
    75 C34       3.8598   -3.8070    1.1371   C.3       1 RES1   0.0000
    76 N5        3.4121   -2.4453    1.4489   N.am      1 RES1   0.0000
    77 C35       2.6971   -1.7062    0.5791   C.2       1 RES1   0.0000
    78 O3        2.1493   -0.6213    0.8824   O.2       1 RES1   0.0000
    79 C36       2.4721   -2.0671   -0.8788   C.ar      1 RES1   0.0000
    80 C37       3.3362   -2.7726   -1.7097   C.ar      1 RES1   0.0000
    81 C38       3.0195   -2.8735   -3.0567   C.ar      1 RES1   0.0000
    82 C39       1.8835   -2.2586   -3.5506   C.ar      1 RES1   0.0000
    83 C40       1.0760   -1.5243   -2.6735   C.ar      1 RES1   0.0000
    84 C41      -0.0889   -0.7205   -3.1632   C.ar      1 RES1   0.0000
    85 C42      -0.3687   -0.6023   -4.5290   C.ar      1 RES1   0.0000
    86 C43      -1.3333    0.2946   -4.9588   C.ar      1 RES1   0.0000
    87 C44      -1.9903    1.0841   -4.0292   C.ar      1 RES1   0.0000
    88 C45      -1.7367    0.8495   -2.6791   C.ar      1 RES1   0.0000
    89 C46      -2.3087    1.6688   -1.5510   C.2       1 RES1   0.0000
    90 O4       -1.7346    1.5872   -0.4391   O.2       1 RES1   0.0000
    91 N6       -3.3288    2.5178   -1.7158   N.am      1 RES1   0.0000
    92 C47      -3.6400    3.4207   -0.6070   C.3       1 RES1   0.0000
    93 C48      -2.6083    4.5252   -0.4170   C.3       1 RES1   0.0000
    94 C49      -4.2783    2.4782   -2.7702   C.ar      1 RES1   0.0000
    95 C50      -4.7814    1.2481   -3.1728   C.ar      1 RES1   0.0000
    96 C51      -5.6838    1.1592   -4.2175   C.ar      1 RES1   0.0000
    97 C52      -6.1729   -0.1635   -4.7044   C.3       1 RES1   0.0000
    98 C53      -6.1204    2.3324   -4.8226   C.ar      1 RES1   0.0000
    99 C54      -5.6832    3.5751   -4.3912   C.ar      1 RES1   0.0000
   100 C55      -6.1713    4.8241   -5.0474   C.3       1 RES1   0.0000
   101 C56      -4.7543    3.6408   -3.3540   C.ar      1 RES1   0.0000
   102 N7       -0.8234   -0.0454   -2.2660   N.ar      1 RES1   0.0000
   103 N8        1.3863   -1.4449   -1.3757   N.ar      1 RES1   0.0000
   104 C57       3.7415   -1.9843    2.7762   C.ar      1 RES1   0.0000
   105 C58       4.2957   -2.8479    3.7291   C.ar      1 RES1   0.0000
   106 C59       4.6500   -2.4032    4.9957   C.ar      1 RES1   0.0000
   107 C60       5.2861   -3.2988    6.0081   C.3       1 RES1   0.0000
   108 C61       4.4115   -1.0811    5.3428   C.ar      1 RES1   0.0000
   109 C62       3.8656   -0.2065    4.4274   C.ar      1 RES1   0.0000
   110 C63       3.6065    1.2184    4.7994   C.3       1 RES1   0.0000
   111 C64       3.5504   -0.6575    3.1531   C.ar      1 RES1   0.0000
   112 H35       5.6101   -4.9547    0.6580   H         1 RES1   0.0000
   113 H36       5.9404   -3.6904    1.8287   H         1 RES1   0.0000
   114 H37       5.7393   -3.2664    0.1457   H         1 RES1   0.0000
   115 H38       3.5728   -4.4689    1.9581   H         1 RES1   0.0000
   116 H39       3.3137   -4.1861    0.2737   H         1 RES1   0.0000
   117 H40       4.2525   -3.2135   -1.3585   H         1 RES1   0.0000
   118 H41       3.6750   -3.4105   -3.7242   H         1 RES1   0.0000
   119 H42       1.6695   -2.3376   -4.6032   H         1 RES1   0.0000
   120 H43       0.1726   -1.1771   -5.2608   H         1 RES1   0.0000
   121 H44      -1.5403    0.4109   -6.0129   H         1 RES1   0.0000
   122 H45      -2.6635    1.8568   -4.3614   H         1 RES1   0.0000
   123 H46      -3.6841    2.8198    0.3040   H         1 RES1   0.0000
   124 H47      -4.6209    3.8561   -0.7896   H         1 RES1   0.0000
   125 H48      -1.6269    4.0961   -0.2335   H         1 RES1   0.0000
   126 H49      -2.8984    5.1209    0.4446   H         1 RES1   0.0000
   127 H50      -2.5457    5.1788   -1.2824   H         1 RES1   0.0000
   128 H51      -4.4520    0.3549   -2.6697   H         1 RES1   0.0000
   129 H52      -5.6928   -0.9894   -4.1874   H         1 RES1   0.0000
   130 H53      -5.9772   -0.2640   -5.7700   H         1 RES1   0.0000
   131 H54      -7.2478   -0.2450   -4.5614   H         1 RES1   0.0000
   132 H55      -6.8195    2.2679   -5.6419   H         1 RES1   0.0000
   133 H56      -6.8594    4.6079   -5.8600   H         1 RES1   0.0000
   134 H57      -5.3363    5.3936   -5.4504   H         1 RES1   0.0000
   135 H58      -6.6828    5.4583   -4.3269   H         1 RES1   0.0000
   136 H59      -4.4048    4.6048   -3.0279   H         1 RES1   0.0000
   137 H60       4.5006   -3.8845    3.5346   H         1 RES1   0.0000
   138 H61       5.4882   -4.2933    5.6258   H         1 RES1   0.0000
   139 H62       4.6427   -3.3870    6.8814   H         1 RES1   0.0000
   140 H63       6.2258   -2.8641    6.3432   H         1 RES1   0.0000
   141 H64       4.6705   -0.7344    6.3290   H         1 RES1   0.0000
   142 H65       3.9504    1.4184    5.8094   H         1 RES1   0.0000
   143 H66       2.5403    1.4262    4.7456   H         1 RES1   0.0000
   144 H67       4.1138    1.8967    4.1186   H         1 RES1   0.0000
   145 H68       3.1744    0.0688    2.4590   H         1 RES1   0.0000
   146 O5       -2.5649   -0.6770    0.4804   O.3       1 RES1   0.0000
   147 H69      -3.0451    0.0216    0.9457   H         1 RES1   0.0000
   148 H70      -3.0213   -0.8117   -0.3613   H         1 RES1   0.0000
@<TRIPOS>BOND
     1     1     6    1
     2     1    18    1
     3     1    30    1
     4     1    31    1
     5     1    78    1
     6     1    90    1
     7     1   102    1
     8     1   103    1
     9     1   146    1
    10     2     3    1
    11     2    40    1
    12     2    41    1
    13     2    42    1
    14     3     4    1
    15     3    43    1
    16     3    44    1
    17     4     5    1
    18     4    32    1
    19     5     6    2
    20     5     7    1
    21     7     8    1
    22     7    31    2
    23     8     9    2
    24     8    45    1
    25     9    10    1
    26     9    46    1
    27    10    11    2
    28    10    47    1
    29    11    12    1
    30    11    31    1
    31    12    13    1
    32    12    30    2
    33    13    14    2
    34    13    48    1
    35    14    15    1
    36    14    49    1
    37    15    16    2
    38    15    50    1
    39    16    17    1
    40    16    30    1
    41    17    18    2
    42    17    19    1
    43    19    20    1
    44    19    22    1
    45    20    21    1
    46    20    51    1
    47    20    52    1
    48    21    53    1
    49    21    54    1
    50    21    55    1
    51    22    23    1
    52    22    29    2
    53    23    24    2
    54    23    56    1
    55    24    25    1
    56    24    26    1
    57    25    57    1
    58    25    58    1
    59    25    59    1
    60    26    27    2
    61    26    60    1
    62    27    28    1
    63    27    29    1
    64    28    61    1
    65    28    62    1
    66    28    63    1
    67    29    64    1
    68    32    33    1
    69    32    39    2
    70    33    34    2
    71    33    65    1
    72    34    35    1
    73    34    36    1
    74    35    66    1
    75    35    67    1
    76    35    68    1
    77    36    37    2
    78    36    69    1
    79    37    38    1
    80    37    39    1
    81    38    70    1
    82    38    71    1
    83    38    72    1
    84    39    73    1
    85    74    75    1
    86    74   112    1
    87    74   113    1
    88    74   114    1
    89    75    76    1
    90    75   115    1
    91    75   116    1
    92    76    77    1
    93    76   104    1
    94    77    78    2
    95    77    79    1
    96    79    80    1
    97    79   103    2
    98    80    81    2
    99    80   117    1
   100    81    82    1
   101    81   118    1
   102    82    83    2
   103    82   119    1
   104    83    84    1
   105    83   103    1
   106    84    85    1
   107    84   102    2
   108    85    86    2
   109    85   120    1
   110    86    87    1
   111    86   121    1
   112    87    88    2
   113    87   122    1
   114    88    89    1
   115    88   102    1
   116    89    90    2
   117    89    91    1
   118    91    92    1
   119    91    94    1
   120    92    93    1
   121    92   123    1
   122    92   124    1
   123    93   125    1
   124    93   126    1
   125    93   127    1
   126    94    95    1
   127    94   101    2
   128    95    96    2
   129    95   128    1
   130    96    97    1
   131    96    98    1
   132    97   129    1
   133    97   130    1
   134    97   131    1
   135    98    99    2
   136    98   132    1
   137    99   100    1
   138    99   101    1
   139   100   133    1
   140   100   134    1
   141   100   135    1
   142   101   136    1
   143   104   105    1
   144   104   111    2
   145   105   106    2
   146   105   137    1
   147   106   107    1
   148   106   108    1
   149   107   138    1
   150   107   139    1
   151   107   140    1
   152   108   109    2
   153   108   141    1
   154   109   110    1
   155   109   111    1
   156   110   142    1
   157   110   143    1
   158   110   144    1
   159   111   145    1
   160   146   147    1
   161   146   148    1
@<TRIPOS>SUBSTRUCTURE
     1 RES1      148 GROUP             0 ****  ****    0  
