@<TRIPOS>MOLECULE
capped_square_antiprismatic_0_nunpairedes_0_charge_3 Charge: 3 Unpaired_Electrons: 5 XTB_Unpaired_Electrons: 0 XTB_Charge: 3
    41    47     1     0     0
SMALL
NoCharges
****
Generated from Architector

@<TRIPOS>ATOM
     1 Sm1       0.0838    0.0091   -0.0525   Sm        1 RES1   0.0000
     2 O1       -0.0968   -1.4622   -1.7108   O.2       1 RES1   0.0000
     3 C1       -1.2454   -1.6098   -1.3513   C.2       1 RES1   0.0000
     4 O2       -2.0539   -0.5330   -1.4163   O.2       1 RES1   0.0000
     5 C2       -1.6329   -2.7556   -0.4457   C.3       1 RES1   0.0000
     6 N1       -1.0421   -2.2669    0.8510   N.4       1 RES1   0.0000
     7 C3       -2.0869   -2.2834    1.9075   C.3       1 RES1   0.0000
     8 C4       -2.8593   -0.9675    1.7683   C.3       1 RES1   0.0000
     9 O3       -1.8986    0.1149    1.6075   O.3       1 RES1   0.0000
    10 C5        0.1871   -3.0063    1.2464   C.3       1 RES1   0.0000
    11 C6        1.0684   -2.1947    2.2254   C.3       1 RES1   0.0000
    12 N2        1.7481   -1.0471    1.5633   N.4       1 RES1   0.0000
    13 C7        1.9184    0.1379    2.4601   C.3       1 RES1   0.0000
    14 C8        1.3736    1.3592    1.7216   C.2       1 RES1   0.0000
    15 O4        1.8934    1.8060    0.7313   O.2       1 RES1   0.0000
    16 O5        0.1672    1.7959    2.1267   O.2       1 RES1   0.0000
    17 C9        3.0333   -1.4427    0.9191   C.3       1 RES1   0.0000
    18 C10       3.1263   -0.7589   -0.4565   C.2       1 RES1   0.0000
    19 O6        2.1116   -0.2003   -0.8764   O.2       1 RES1   0.0000
    20 O7        4.1947   -0.7672   -1.1618   O.3       1 RES1   0.0000
    21 H1       -3.0151   -0.7162   -1.3464   H         1 RES1   0.0000
    22 H2       -1.1940   -3.7088   -0.7632   H         1 RES1   0.0000
    23 H3       -2.7132   -2.9001   -0.3703   H         1 RES1   0.0000
    24 H4       -1.6275   -2.3228    2.8961   H         1 RES1   0.0000
    25 H5       -2.7503   -3.1540    1.8259   H         1 RES1   0.0000
    26 H6       -3.5056   -0.7852    2.6276   H         1 RES1   0.0000
    27 H7       -3.4829   -0.9742    0.8707   H         1 RES1   0.0000
    28 H8       -1.9468    0.6443    2.4237   H         1 RES1   0.0000
    29 H9        0.7707   -3.2051    0.3385   H         1 RES1   0.0000
    30 H10      -0.0784   -3.9673    1.7142   H         1 RES1   0.0000
    31 H11       1.8048   -2.8696    2.6803   H         1 RES1   0.0000
    32 H12       0.4287   -1.7999    3.0191   H         1 RES1   0.0000
    33 H13       2.9783    0.3372    2.6726   H         1 RES1   0.0000
    34 H14       1.4222   -0.0003    3.4250   H         1 RES1   0.0000
    35 H15      -0.0120    2.7128    1.8042   H         1 RES1   0.0000
    36 H16       3.0505   -2.5284    0.7533   H         1 RES1   0.0000
    37 H17       3.9062   -1.1862    1.5382   H         1 RES1   0.0000
    38 H18       5.0061   -1.2087   -0.8507   H         1 RES1   0.0000
    39 O8       -0.1380    1.9460   -1.2913   O.3       1 RES1   0.0000
    40 H19      -0.5565    2.0110   -2.1716   H         1 RES1   0.0000
    41 H20       0.5680    2.6216   -1.3446   H         1 RES1   0.0000
@<TRIPOS>BOND
     1     1     2    1
     2     1     4    1
     3     1     6    1
     4     1     9    1
     5     1    12    1
     6     1    15    1
     7     1    16    1
     8     1    19    1
     9     1    39    1
    10     2     3    2
    11     3     4    1
    12     3     5    1
    13     4    21    1
    14     5     6    1
    15     5    22    1
    16     5    23    1
    17     6     7    1
    18     6    10    1
    19     7     8    1
    20     7    24    1
    21     7    25    1
    22     8     9    1
    23     8    26    1
    24     8    27    1
    25     9    28    1
    26    10    11    1
    27    10    29    1
    28    10    30    1
    29    11    12    1
    30    11    31    1
    31    11    32    1
    32    12    13    1
    33    12    17    1
    34    13    14    1
    35    13    33    1
    36    13    34    1
    37    14    15    2
    38    14    16    1
    39    16    35    1
    40    17    18    1
    41    17    36    1
    42    17    37    1
    43    18    19    2
    44    18    20    1
    45    20    38    1
    46    39    40    1
    47    39    41    1
@<TRIPOS>SUBSTRUCTURE
     1 RES1       41 GROUP             0 ****  ****    0  
