@<TRIPOS>MOLECULE
am_c3_9H2O_c0_0_nunpairedes_0_charge_1 Charge: 1 Unpaired_Electrons: 6 XTB_Unpaired_Electrons: 0 XTB_Charge: 1
   122   135     1     0     0
SMALL
NoCharges
****
Generated from Architector

@<TRIPOS>ATOM
     1 Eu1      -0.3703   -0.1137   -0.1864   Eu        1 RES1   0.0000
     2 C1       -4.1589   -1.5497   -3.2336   C.3       1 RES1   0.0000
     3 C2       -3.8908   -0.0504   -3.2898   C.3       1 RES1   0.0000
     4 C3       -3.4239    0.3705   -4.6798   C.3       1 RES1   0.0000
     5 C4       -3.2832    1.8730   -4.9299   C.3       1 RES1   0.0000
     6 C5       -2.1673    2.5628   -4.1416   C.3       1 RES1   0.0000
     7 C6       -2.6763    3.1911   -2.8432   C.3       1 RES1   0.0000
     8 N1       -1.5641    3.6852   -2.0325   N.ar      1 RES1   0.0000
     9 C7       -1.3406    5.0199   -1.7711   C.ar      1 RES1   0.0000
    10 C8       -2.1894    5.9889   -2.5013   C.ar      1 RES1   0.0000
    11 C9       -1.9033    6.2557   -3.8362   C.ar      1 RES1   0.0000
    12 C10      -2.6925    7.1361   -4.5526   C.ar      1 RES1   0.0000
    13 C11      -3.7710    7.7545   -3.9419   C.ar      1 RES1   0.0000
    14 C12      -4.0522    7.4920   -2.6107   C.ar      1 RES1   0.0000
    15 C13      -3.2633    6.6188   -1.8810   C.ar      1 RES1   0.0000
    16 C14      -0.3894    5.4583   -0.8857   C.ar      1 RES1   0.0000
    17 C15      -0.1980    6.9213   -0.6889   C.ar      1 RES1   0.0000
    18 C16      -0.7184    7.5932    0.4127   C.ar      1 RES1   0.0000
    19 C17      -0.5167    8.9573    0.5527   C.ar      1 RES1   0.0000
    20 C18       0.2121    9.6592   -0.3929   C.ar      1 RES1   0.0000
    21 C19       0.7252    8.9932   -1.4936   C.ar      1 RES1   0.0000
    22 C20       0.5184    7.6339   -1.6456   C.ar      1 RES1   0.0000
    23 C21       0.4212    4.5062   -0.1841   C.ar      1 RES1   0.0000
    24 C22       1.3588    4.7810    0.8295   C.ar      1 RES1   0.0000
    25 C23       1.9979    3.7212    1.4741   C.ar      1 RES1   0.0000
    26 C24       2.9693    3.8555    2.5202   C.ar      1 RES1   0.0000
    27 C25       3.5184    2.7807    3.1349   C.ar      1 RES1   0.0000
    28 C26       3.1272    1.4378    2.8153   C.ar      1 RES1   0.0000
    29 C27       3.5892    0.2959    3.4703   C.ar      1 RES1   0.0000
    30 C28       3.1102   -0.9675    3.0810   C.ar      1 RES1   0.0000
    31 C29       3.4825   -2.2305    3.6537   C.ar      1 RES1   0.0000
    32 C30       4.5254   -2.3267    4.7112   C.ar      1 RES1   0.0000
    33 C31       5.8208   -2.7129    4.3813   C.ar      1 RES1   0.0000
    34 C32       6.7917   -2.8101    5.3637   C.ar      1 RES1   0.0000
    35 C33       6.4792   -2.5356    6.6848   C.ar      1 RES1   0.0000
    36 C34       5.1841   -2.1765    7.0200   C.ar      1 RES1   0.0000
    37 C35       4.2102   -2.0687    6.0411   C.ar      1 RES1   0.0000
    38 C36       2.8863   -3.3802    3.2101   C.ar      1 RES1   0.0000
    39 C37       3.2664   -4.6911    3.7913   C.ar      1 RES1   0.0000
    40 C38       2.7507   -5.1003    5.0158   C.ar      1 RES1   0.0000
    41 C39       3.0973   -6.3372    5.5318   C.ar      1 RES1   0.0000
    42 C40       3.9664   -7.1637    4.8393   C.ar      1 RES1   0.0000
    43 C41       4.4818   -6.7560    3.6192   C.ar      1 RES1   0.0000
    44 C42       4.1347   -5.5257    3.0904   C.ar      1 RES1   0.0000
    45 N2        1.9422   -3.3893    2.2032   N.ar      1 RES1   0.0000
    46 C43       1.2624   -4.6075    1.7667   C.3       1 RES1   0.0000
    47 C44      -0.2445   -4.5904    2.0627   C.3       1 RES1   0.0000
    48 C45      -0.5965   -4.4561    3.5458   C.3       1 RES1   0.0000
    49 C46      -2.0878   -4.6653    3.8396   C.3       1 RES1   0.0000
    50 C47      -3.0379   -3.5929    3.3051   C.3       1 RES1   0.0000
    51 C48      -2.9547   -2.2778    4.0741   C.3       1 RES1   0.0000
    52 C49       1.6006   -2.2569    1.5290   C.ar      1 RES1   0.0000
    53 O1        0.8198   -2.2756    0.5642   O.2       1 RES1   0.0000
    54 C50       2.1617   -1.0044    2.0287   C.ar      1 RES1   0.0000
    55 N3        1.6911    0.0798    1.4196   N.ar      1 RES1   0.0000
    56 C51       2.1734    1.2628    1.7779   C.ar      1 RES1   0.0000
    57 C52       1.6543    2.4039    1.0747   C.ar      1 RES1   0.0000
    58 N4        0.8280    2.1367    0.0782   N.ar      1 RES1   0.0000
    59 C53       0.2233    3.1460   -0.5317   C.ar      1 RES1   0.0000
    60 C54      -0.8024    2.7196   -1.4700   C.ar      1 RES1   0.0000
    61 O2       -1.0215    1.5065   -1.6776   O.2       1 RES1   0.0000
    62 H1       -4.4962   -1.8415   -2.2429   H         1 RES1   0.0000
    63 H2       -3.2531   -2.1054   -3.4560   H         1 RES1   0.0000
    64 H3       -4.9222   -1.8354   -3.9531   H         1 RES1   0.0000
    65 H4       -3.1332    0.1803   -2.5376   H         1 RES1   0.0000
    66 H5       -4.8074    0.4825   -3.0338   H         1 RES1   0.0000
    67 H6       -4.1504   -0.0017   -5.4033   H         1 RES1   0.0000
    68 H7       -2.4737   -0.1175   -4.8940   H         1 RES1   0.0000
    69 H8       -4.2285    2.3746   -4.7210   H         1 RES1   0.0000
    70 H9       -3.0744    2.0062   -5.9921   H         1 RES1   0.0000
    71 H10      -1.7181    3.3585   -4.7392   H         1 RES1   0.0000
    72 H11      -1.3912    1.8360   -3.9038   H         1 RES1   0.0000
    73 H12      -3.1899    2.4394   -2.2365   H         1 RES1   0.0000
    74 H13      -3.3618    4.0116   -3.0506   H         1 RES1   0.0000
    75 H14      -1.0601    5.7690   -4.3056   H         1 RES1   0.0000
    76 H15      -2.4735    7.3207   -5.5923   H         1 RES1   0.0000
    77 H16      -4.4042    8.4296   -4.4999   H         1 RES1   0.0000
    78 H17      -4.9074    7.9612   -2.1514   H         1 RES1   0.0000
    79 H18      -3.4835    6.4040   -0.8440   H         1 RES1   0.0000
    80 H19      -1.2923    7.0595    1.1583   H         1 RES1   0.0000
    81 H20      -0.9431    9.4747    1.3987   H         1 RES1   0.0000
    82 H21       0.3730   10.7229   -0.2898   H         1 RES1   0.0000
    83 H22       1.2769    9.5425   -2.2402   H         1 RES1   0.0000
    84 H23       0.9137    7.1103   -2.5049   H         1 RES1   0.0000
    85 H24       1.5557    5.8073    1.1198   H         1 RES1   0.0000
    86 H25       3.2638    4.8538    2.7977   H         1 RES1   0.0000
    87 H26       4.2612    2.9044    3.9065   H         1 RES1   0.0000
    88 H27       4.3051    0.3750    4.2795   H         1 RES1   0.0000
    89 H28       6.0758   -2.9355    3.3545   H         1 RES1   0.0000
    90 H29       7.7934   -3.1096    5.0960   H         1 RES1   0.0000
    91 H30       7.2323   -2.6087    7.4569   H         1 RES1   0.0000
    92 H31       4.9375   -1.9893    8.0538   H         1 RES1   0.0000
    93 H32       3.1966   -1.7934    6.3020   H         1 RES1   0.0000
    94 H33       2.0728   -4.4584    5.5609   H         1 RES1   0.0000
    95 H34       2.6776   -6.6542    6.4737   H         1 RES1   0.0000
    96 H35       4.2314   -8.1344    5.2315   H         1 RES1   0.0000
    97 H36       5.1473   -7.4083    3.0761   H         1 RES1   0.0000
    98 H37       4.5276   -5.2019    2.1353   H         1 RES1   0.0000
    99 H38       1.7340   -5.4597    2.2512   H         1 RES1   0.0000
   100 H39       1.4126   -4.6825    0.6842   H         1 RES1   0.0000
   101 H40      -0.6332   -5.5381    1.6928   H         1 RES1   0.0000
   102 H41      -0.7093   -3.8046    1.4676   H         1 RES1   0.0000
   103 H42      -0.2663   -3.4883    3.9308   H         1 RES1   0.0000
   104 H43      -0.0436   -5.2183    4.0979   H         1 RES1   0.0000
   105 H44      -2.2238   -4.7215    4.9199   H         1 RES1   0.0000
   106 H45      -2.3827   -5.6314    3.4304   H         1 RES1   0.0000
   107 H46      -4.0603   -3.9577    3.4008   H         1 RES1   0.0000
   108 H47      -2.8693   -3.4427    2.2368   H         1 RES1   0.0000
   109 H48      -3.3604   -2.3967    5.0739   H         1 RES1   0.0000
   110 H49      -3.5250   -1.4976    3.5770   H         1 RES1   0.0000
   111 H50      -1.9316   -1.9341    4.1959   H         1 RES1   0.0000
   112 N5       -2.5168    0.8030    0.7746   N.3       1 RES1   0.0000
   113 O3       -3.5350    1.2484    1.2103   O.2       1 RES1   0.0000
   114 O4       -1.4273    1.3258    1.0699   O.co2     1 RES1   0.0000
   115 O5       -2.5141   -0.1938    0.0424   O.co2     1 RES1   0.0000
   116 N6        0.3818   -0.9098   -2.3309   N.3       1 RES1   0.0000
   117 O6        0.5942   -1.0778   -3.4903   O.2       1 RES1   0.0000
   118 O7        1.1505   -0.2252   -1.6322   O.co2     1 RES1   0.0000
   119 O8       -0.6025   -1.4195   -1.7782   O.co2     1 RES1   0.0000
   120 O9       -1.0457   -1.1261    2.0216   O.3       1 RES1   0.0000
   121 H51      -0.6197   -1.2358    2.8827   H         1 RES1   0.0000
   122 H52      -1.6569   -1.8774    1.9282   H         1 RES1   0.0000
@<TRIPOS>BOND
     1     1    53    1
     2     1    55    1
     3     1    58    1
     4     1    61    1
     5     1   114    1
     6     1   115    1
     7     1   118    1
     8     1   119    1
     9     1   120    1
    10     2     3    1
    11     2    62    1
    12     2    63    1
    13     2    64    1
    14     3     4    1
    15     3    65    1
    16     3    66    1
    17     4     5    1
    18     4    67    1
    19     4    68    1
    20     5     6    1
    21     5    69    1
    22     5    70    1
    23     6     7    1
    24     6    71    1
    25     6    72    1
    26     7     8    1
    27     7    73    1
    28     7    74    1
    29     8     9    1
    30     8    60    1
    31     9    10    1
    32     9    16    2
    33    10    11    1
    34    10    15    2
    35    11    12    2
    36    11    75    1
    37    12    13    1
    38    12    76    1
    39    13    14    2
    40    13    77    1
    41    14    15    1
    42    14    78    1
    43    15    79    1
    44    16    17    1
    45    16    23    1
    46    17    18    1
    47    17    22    2
    48    18    19    2
    49    18    80    1
    50    19    20    1
    51    19    81    1
    52    20    21    2
    53    20    82    1
    54    21    22    1
    55    21    83    1
    56    22    84    1
    57    23    24    1
    58    23    59    2
    59    24    25    2
    60    24    85    1
    61    25    26    1
    62    25    57    1
    63    26    27    2
    64    26    86    1
    65    27    28    1
    66    27    87    1
    67    28    29    1
    68    28    56    2
    69    29    30    2
    70    29    88    1
    71    30    31    1
    72    30    54    1
    73    31    32    1
    74    31    38    2
    75    32    33    1
    76    32    37    2
    77    33    34    2
    78    33    89    1
    79    34    35    1
    80    34    90    1
    81    35    36    2
    82    35    91    1
    83    36    37    1
    84    36    92    1
    85    37    93    1
    86    38    39    1
    87    38    45    1
    88    39    40    1
    89    39    44    2
    90    40    41    2
    91    40    94    1
    92    41    42    1
    93    41    95    1
    94    42    43    2
    95    42    96    1
    96    43    44    1
    97    43    97    1
    98    44    98    1
    99    45    46    1
   100    45    52    1
   101    46    47    1
   102    46    99    1
   103    46   100    1
   104    47    48    1
   105    47   101    1
   106    47   102    1
   107    48    49    1
   108    48   103    1
   109    48   104    1
   110    49    50    1
   111    49   105    1
   112    49   106    1
   113    50    51    1
   114    50   107    1
   115    50   108    1
   116    51   109    1
   117    51   110    1
   118    51   111    1
   119    52    53    2
   120    52    54    1
   121    54    55    2
   122    55    56    1
   123    56    57    1
   124    57    58    2
   125    58    59    1
   126    59    60    1
   127    60    61    2
   128   112   113    2
   129   112   114    1
   130   112   115    1
   131   116   117    2
   132   116   118    1
   133   116   119    1
   134   120   121    1
   135   120   122    1
@<TRIPOS>SUBSTRUCTURE
     1 RES1      122 GROUP             0 ****  ****    0  
