@<TRIPOS>MOLECULE
am_c3_9H2O_c0_0_nunpairedes_0_charge_3 Charge: 3 Unpaired_Electrons: 2 XTB_Unpaired_Electrons: 0 XTB_Charge: 3
   160   171     1     0     0
SMALL
NoCharges
****
Generated from Architector

@<TRIPOS>ATOM
     1 Pr1       0.0271    0.0671    0.0314   Pr        1 RES1   0.0000
     2 C1        4.9456    0.3768    3.1305   C.3       1 RES1   0.0000
     3 C2        3.7126    1.0503    3.7262   C.3       1 RES1   0.0000
     4 C3        3.1775    2.1229    2.7803   C.3       1 RES1   0.0000
     5 C4        2.0530    3.0175    3.3163   C.3       1 RES1   0.0000
     6 N1        0.7294    2.4663    3.6568   N.am      1 RES1   0.0000
     7 C5        0.1504    2.9614    4.9006   C.3       1 RES1   0.0000
     8 C6        0.0669    1.8945    5.9971   C.3       1 RES1   0.0000
     9 C7        1.4397    1.5894    6.5995   C.3       1 RES1   0.0000
    10 C8        1.3555    0.5137    7.6748   C.3       1 RES1   0.0000
    11 C9        0.0948    1.7665    2.7169   C.2       1 RES1   0.0000
    12 O1        0.6861    1.4836    1.6533   O.2       1 RES1   0.0000
    13 C10      -1.3340    1.2365    2.8093   C.ar      1 RES1   0.0000
    14 C11      -2.3202    1.4902    3.7760   C.ar      1 RES1   0.0000
    15 C12      -3.5395    0.8606    3.6868   C.ar      1 RES1   0.0000
    16 C13      -3.7831   -0.0863    2.6836   C.ar      1 RES1   0.0000
    17 C14      -4.9889   -0.8442    2.6213   C.ar      1 RES1   0.0000
    18 C15      -5.1711   -1.7703    1.6516   C.ar      1 RES1   0.0000
    19 C16      -4.1683   -1.9931    0.6656   C.ar      1 RES1   0.0000
    20 C17      -4.3425   -2.9048   -0.3822   C.ar      1 RES1   0.0000
    21 C18      -3.4050   -2.9990   -1.3834   C.ar      1 RES1   0.0000
    22 C19      -2.2504   -2.2072   -1.3267   C.ar      1 RES1   0.0000
    23 C20      -1.2089   -1.9619   -2.3984   C.2       1 RES1   0.0000
    24 O2       -0.3723   -1.0818   -2.0790   O.2       1 RES1   0.0000
    25 N2       -1.1741   -2.4887   -3.6256   N.am      1 RES1   0.0000
    26 C21      -0.2307   -1.8731   -4.5648   C.3       1 RES1   0.0000
    27 C22       0.7357   -2.8250   -5.2602   C.3       1 RES1   0.0000
    28 C23       1.7207   -3.5018   -4.3080   C.3       1 RES1   0.0000
    29 C24       2.7246   -4.3781   -5.0507   C.3       1 RES1   0.0000
    30 C25      -2.0439   -3.4926   -4.2258   C.3       1 RES1   0.0000
    31 C26      -1.5895   -4.9435   -4.0156   C.3       1 RES1   0.0000
    32 C27      -1.3407   -5.3494   -2.5648   C.3       1 RES1   0.0000
    33 C28      -0.7341   -6.7479   -2.5144   C.3       1 RES1   0.0000
    34 N3       -2.0279   -1.4117   -0.2734   N.ar      1 RES1   0.0000
    35 C29      -2.9557   -1.2592    0.6814   C.ar      1 RES1   0.0000
    36 C30      -2.7524   -0.2757    1.7330   C.ar      1 RES1   0.0000
    37 N4       -1.6074    0.4216    1.7862   N.ar      1 RES1   0.0000
    38 H1        5.3082   -0.4034    3.7927   H         1 RES1   0.0000
    39 H2        5.7460    1.0982    2.9922   H         1 RES1   0.0000
    40 H3        4.7170   -0.0713    2.1658   H         1 RES1   0.0000
    41 H4        4.0013    1.5070    4.6751   H         1 RES1   0.0000
    42 H5        2.9457    0.2922    3.9136   H         1 RES1   0.0000
    43 H6        2.9056    1.6604    1.8306   H         1 RES1   0.0000
    44 H7        3.9937    2.8195    2.5781   H         1 RES1   0.0000
    45 H8        1.8719    3.7918    2.5636   H         1 RES1   0.0000
    46 H9        2.4349    3.4903    4.2181   H         1 RES1   0.0000
    47 H10      -0.8163    3.4133    4.6812   H         1 RES1   0.0000
    48 H11       0.7847    3.7688    5.2662   H         1 RES1   0.0000
    49 H12      -0.3581    0.9714    5.5981   H         1 RES1   0.0000
    50 H13      -0.5867    2.2559    6.7927   H         1 RES1   0.0000
    51 H14       1.8587    2.4998    7.0332   H         1 RES1   0.0000
    52 H15       2.1154    1.2554    5.8134   H         1 RES1   0.0000
    53 H16       0.6954    0.8287    8.4772   H         1 RES1   0.0000
    54 H17       2.3383    0.3284    8.0982   H         1 RES1   0.0000
    55 H18       0.9770   -0.4179    7.2573   H         1 RES1   0.0000
    56 H19      -2.1719    2.1597    4.5986   H         1 RES1   0.0000
    57 H20      -4.3121    1.0742    4.4100   H         1 RES1   0.0000
    58 H21      -5.7477   -0.6574    3.3643   H         1 RES1   0.0000
    59 H22      -6.0801   -2.3461    1.5858   H         1 RES1   0.0000
    60 H23      -5.2391   -3.5052   -0.4247   H         1 RES1   0.0000
    61 H24      -3.6055   -3.6756   -2.1906   H         1 RES1   0.0000
    62 H25       0.3514   -1.1374   -4.0103   H         1 RES1   0.0000
    63 H26      -0.8321   -1.3535   -5.3160   H         1 RES1   0.0000
    64 H27       1.3014   -2.2227   -5.9722   H         1 RES1   0.0000
    65 H28       0.1952   -3.5742   -5.8333   H         1 RES1   0.0000
    66 H29       1.1866   -4.1117   -3.5766   H         1 RES1   0.0000
    67 H30       2.2579   -2.7315   -3.7521   H         1 RES1   0.0000
    68 H31       2.2155   -5.1568   -5.6102   H         1 RES1   0.0000
    69 H32       3.4029   -4.8577   -4.3494   H         1 RES1   0.0000
    70 H33       3.3116   -3.7902   -5.7509   H         1 RES1   0.0000
    71 H34      -2.0453   -3.2985   -5.2997   H         1 RES1   0.0000
    72 H35      -3.0623   -3.3483   -3.8766   H         1 RES1   0.0000
    73 H36      -0.6735   -5.1214   -4.5768   H         1 RES1   0.0000
    74 H37      -2.3552   -5.5977   -4.4360   H         1 RES1   0.0000
    75 H38      -2.2750   -5.3572   -2.0019   H         1 RES1   0.0000
    76 H39      -0.6683   -4.6306   -2.0793   H         1 RES1   0.0000
    77 H40      -1.4039   -7.4574   -2.9924   H         1 RES1   0.0000
    78 H41      -0.5714   -7.0699   -1.4889   H         1 RES1   0.0000
    79 H42       0.2169   -6.7736   -3.0397   H         1 RES1   0.0000
    80 C31      -0.2808    6.9912    0.5085   C.3       1 RES1   0.0000
    81 C32      -1.0094    6.1434   -0.5280   C.3       1 RES1   0.0000
    82 C33      -0.0466    5.1793   -1.2169   C.3       1 RES1   0.0000
    83 C34      -0.7556    4.3128   -2.2529   C.3       1 RES1   0.0000
    84 N5        0.1586    3.3686   -2.8996   N.am      1 RES1   0.0000
    85 C35       0.0737    3.3168   -4.3558   C.3       1 RES1   0.0000
    86 C36       0.4593    4.6015   -5.0986   C.3       1 RES1   0.0000
    87 C37       1.9553    4.9063   -5.1953   C.3       1 RES1   0.0000
    88 C38       2.5788    5.3593   -3.8805   C.3       1 RES1   0.0000
    89 C39       0.6473    2.4117   -2.1033   C.2       1 RES1   0.0000
    90 O3        0.2082    2.2863   -0.9371   O.2       1 RES1   0.0000
    91 C40       1.7426    1.4449   -2.4793   C.ar      1 RES1   0.0000
    92 C41       2.6762    1.5851   -3.5133   C.ar      1 RES1   0.0000
    93 C42       3.6192    0.6022   -3.7045   C.ar      1 RES1   0.0000
    94 C43       3.6363   -0.5327   -2.8779   C.ar      1 RES1   0.0000
    95 C44       4.5553   -1.6060   -3.0712   C.ar      1 RES1   0.0000
    96 C45       4.5074   -2.7046   -2.2786   C.ar      1 RES1   0.0000
    97 C46       3.5409   -2.8171   -1.2351   C.ar      1 RES1   0.0000
    98 C47       3.4050   -3.9661   -0.4444   C.ar      1 RES1   0.0000
    99 C48       2.4791   -4.0091    0.5733   C.ar      1 RES1   0.0000
   100 C49       1.6669   -2.8903    0.8195   C.ar      1 RES1   0.0000
   101 C50       0.7774   -2.5933    2.0207   C.2       1 RES1   0.0000
   102 O4        0.3061   -1.4351    2.0145   O.2       1 RES1   0.0000
   103 N6        0.5719   -3.3896    3.0771   N.am      1 RES1   0.0000
   104 C51       0.9781   -4.7887    3.1981   C.3       1 RES1   0.0000
   105 C52       0.2598   -5.7883    2.2811   C.3       1 RES1   0.0000
   106 C53      -1.2126   -6.0146    2.6422   C.3       1 RES1   0.0000
   107 C54      -2.1353   -4.9767    2.0139   C.3       1 RES1   0.0000
   108 C55       0.2562   -2.7473    4.3708   C.3       1 RES1   0.0000
   109 C56      -0.9216   -1.7894    4.5675   C.3       1 RES1   0.0000
   110 C57      -2.3483   -2.3440    4.5485   C.3       1 RES1   0.0000
   111 C58      -2.6137   -3.4951    5.5101   C.3       1 RES1   0.0000
   112 N7        1.7370   -1.8184    0.0187   N.ar      1 RES1   0.0000
   113 C59       2.6347   -1.7576   -0.9772   C.ar      1 RES1   0.0000
   114 C60       2.6803   -0.5824   -1.8334   C.ar      1 RES1   0.0000
   115 N8        1.7911    0.4044   -1.6439   N.ar      1 RES1   0.0000
   116 H43      -0.9727    7.6713    0.9979   H         1 RES1   0.0000
   117 H44       0.4995    7.5830    0.0367   H         1 RES1   0.0000
   118 H45       0.1780    6.3599    1.2676   H         1 RES1   0.0000
   119 H46      -1.4708    6.8001   -1.2665   H         1 RES1   0.0000
   120 H47      -1.8110    5.5819   -0.0415   H         1 RES1   0.0000
   121 H48       0.4158    4.5418   -0.4629   H         1 RES1   0.0000
   122 H49       0.7392    5.7530   -1.7034   H         1 RES1   0.0000
   123 H50      -1.1978    4.9412   -3.0210   H         1 RES1   0.0000
   124 H51      -1.5597    3.7528   -1.7644   H         1 RES1   0.0000
   125 H52      -0.9823    3.1189   -4.5828   H         1 RES1   0.0000
   126 H53       0.6584    2.4781   -4.7300   H         1 RES1   0.0000
   127 H54      -0.0406    5.4567   -4.6436   H         1 RES1   0.0000
   128 H55       0.0717    4.4928   -6.1141   H         1 RES1   0.0000
   129 H56       2.0816    5.7135   -5.9190   H         1 RES1   0.0000
   130 H57       2.4865    4.0399   -5.5990   H         1 RES1   0.0000
   131 H58       2.0939    6.2682   -3.5338   H         1 RES1   0.0000
   132 H59       3.6317    5.5860   -4.0232   H         1 RES1   0.0000
   133 H60       2.4935    4.6004   -3.1058   H         1 RES1   0.0000
   134 H61       2.6856    2.4600   -4.1404   H         1 RES1   0.0000
   135 H62       4.3486    0.6890   -4.4947   H         1 RES1   0.0000
   136 H63       5.2778   -1.5234   -3.8680   H         1 RES1   0.0000
   137 H64       5.1849   -3.5288   -2.4312   H         1 RES1   0.0000
   138 H65       4.0381   -4.8211   -0.6359   H         1 RES1   0.0000
   139 H66       2.4050   -4.9167    1.1406   H         1 RES1   0.0000
   140 H67       0.7667   -5.1012    4.2219   H         1 RES1   0.0000
   141 H68       2.0623   -4.8464    3.0756   H         1 RES1   0.0000
   142 H69       0.7880   -6.7384    2.3916   H         1 RES1   0.0000
   143 H70       0.3129   -5.4886    1.2333   H         1 RES1   0.0000
   144 H71      -1.3352   -6.0181    3.7269   H         1 RES1   0.0000
   145 H72      -1.5135   -7.0005    2.2854   H         1 RES1   0.0000
   146 H73      -1.8300   -3.9709    2.2877   H         1 RES1   0.0000
   147 H74      -3.1581   -5.1321    2.3472   H         1 RES1   0.0000
   148 H75      -2.1132   -5.0567    0.9281   H         1 RES1   0.0000
   149 H76       1.1528   -2.1776    4.6333   H         1 RES1   0.0000
   150 H77       0.1346   -3.5395    5.1026   H         1 RES1   0.0000
   151 H78      -0.8513   -0.9677    3.8606   H         1 RES1   0.0000
   152 H79      -0.7583   -1.3814    5.5675   H         1 RES1   0.0000
   153 H80      -2.6323   -2.6352    3.5366   H         1 RES1   0.0000
   154 H81      -3.0072   -1.5190    4.8346   H         1 RES1   0.0000
   155 H82      -2.0484   -4.3829    5.2452   H         1 RES1   0.0000
   156 H83      -3.6696   -3.7528    5.4756   H         1 RES1   0.0000
   157 H84      -2.3678   -3.2078    6.5291   H         1 RES1   0.0000
   158 O5       -2.2280    1.2274   -1.0300   O.3       1 RES1   0.0000
   159 H85      -2.2744    1.3115   -1.9907   H         1 RES1   0.0000
   160 H86      -2.4279    2.1030   -0.6695   H         1 RES1   0.0000
@<TRIPOS>BOND
     1     1    12    1
     2     1    24    1
     3     1    34    1
     4     1    37    1
     5     1    90    1
     6     1   102    1
     7     1   112    1
     8     1   115    1
     9     1   158    1
    10     2     3    1
    11     2    38    1
    12     2    39    1
    13     2    40    1
    14     3     4    1
    15     3    41    1
    16     3    42    1
    17     4     5    1
    18     4    43    1
    19     4    44    1
    20     5     6    1
    21     5    45    1
    22     5    46    1
    23     6     7    1
    24     6    11    1
    25     7     8    1
    26     7    47    1
    27     7    48    1
    28     8     9    1
    29     8    49    1
    30     8    50    1
    31     9    10    1
    32     9    51    1
    33     9    52    1
    34    10    53    1
    35    10    54    1
    36    10    55    1
    37    11    12    2
    38    11    13    1
    39    13    14    1
    40    13    37    2
    41    14    15    2
    42    14    56    1
    43    15    16    1
    44    15    57    1
    45    16    17    1
    46    16    36    2
    47    17    18    2
    48    17    58    1
    49    18    19    1
    50    18    59    1
    51    19    20    1
    52    19    35    2
    53    20    21    2
    54    20    60    1
    55    21    22    1
    56    21    61    1
    57    22    23    1
    58    22    34    2
    59    23    24    2
    60    23    25    1
    61    25    26    1
    62    25    30    1
    63    26    27    1
    64    26    62    1
    65    26    63    1
    66    27    28    1
    67    27    64    1
    68    27    65    1
    69    28    29    1
    70    28    66    1
    71    28    67    1
    72    29    68    1
    73    29    69    1
    74    29    70    1
    75    30    31    1
    76    30    71    1
    77    30    72    1
    78    31    32    1
    79    31    73    1
    80    31    74    1
    81    32    33    1
    82    32    75    1
    83    32    76    1
    84    33    77    1
    85    33    78    1
    86    33    79    1
    87    34    35    1
    88    35    36    1
    89    36    37    1
    90    80    81    1
    91    80   116    1
    92    80   117    1
    93    80   118    1
    94    81    82    1
    95    81   119    1
    96    81   120    1
    97    82    83    1
    98    82   121    1
    99    82   122    1
   100    83    84    1
   101    83   123    1
   102    83   124    1
   103    84    85    1
   104    84    89    1
   105    85    86    1
   106    85   125    1
   107    85   126    1
   108    86    87    1
   109    86   127    1
   110    86   128    1
   111    87    88    1
   112    87   129    1
   113    87   130    1
   114    88   131    1
   115    88   132    1
   116    88   133    1
   117    89    90    2
   118    89    91    1
   119    91    92    1
   120    91   115    2
   121    92    93    2
   122    92   134    1
   123    93    94    1
   124    93   135    1
   125    94    95    1
   126    94   114    2
   127    95    96    2
   128    95   136    1
   129    96    97    1
   130    96   137    1
   131    97    98    1
   132    97   113    2
   133    98    99    2
   134    98   138    1
   135    99   100    1
   136    99   139    1
   137   100   101    1
   138   100   112    2
   139   101   102    2
   140   101   103    1
   141   103   104    1
   142   103   108    1
   143   104   105    1
   144   104   140    1
   145   104   141    1
   146   105   106    1
   147   105   142    1
   148   105   143    1
   149   106   107    1
   150   106   144    1
   151   106   145    1
   152   107   146    1
   153   107   147    1
   154   107   148    1
   155   108   109    1
   156   108   149    1
   157   108   150    1
   158   109   110    1
   159   109   151    1
   160   109   152    1
   161   110   111    1
   162   110   153    1
   163   110   154    1
   164   111   155    1
   165   111   156    1
   166   111   157    1
   167   112   113    1
   168   113   114    1
   169   114   115    1
   170   158   159    1
   171   158   160    1
@<TRIPOS>SUBSTRUCTURE
     1 RES1      160 GROUP             0 ****  ****    0  
