@<TRIPOS>MOLECULE
am_c3_9H2O_c0_0_nunpairedes_0_charge_3 Charge: 3 Unpaired_Electrons: 2 XTB_Unpaired_Electrons: 0 XTB_Charge: 3
    82    94     1     0     0
SMALL
NoCharges
****
Generated from Architector

@<TRIPOS>ATOM
     1 Pr1      -1.1153    0.5489    0.5499   Pr        1 RES1   0.0000
     2 C1        1.1527    4.8063    4.1272   C.3       1 RES1   0.0000
     3 C2        0.2676    5.4892    3.0697   C.3       1 RES1   0.0000
     4 C3       -1.1870    5.4805    3.5696   C.3       1 RES1   0.0000
     5 C4        0.7352    6.9526    2.8472   C.3       1 RES1   0.0000
     6 C5        1.3344    7.2970    1.4783   C.3       1 RES1   0.0000
     7 C6        0.7059    6.5563    0.2765   C.3       1 RES1   0.0000
     8 C7        1.3923    6.9718   -1.0207   C.3       1 RES1   0.0000
     9 C8       -0.8278    6.7933    0.1729   C.3       1 RES1   0.0000
    10 C9        0.8769    5.1226    0.5942   C.ar      1 RES1   0.0000
    11 N1        1.3631    4.2150   -0.2090   N.ar      1 RES1   0.0000
    12 C10       1.0385    2.9486   -0.0532   C.ar      1 RES1   0.0000
    13 C11       1.6254    1.9200   -0.9339   C.ar      1 RES1   0.0000
    14 C12       2.8563    2.0549   -1.5731   C.ar      1 RES1   0.0000
    15 C13       3.2783    1.0255   -2.4027   C.ar      1 RES1   0.0000
    16 C14       2.4009   -0.0058   -2.7209   C.ar      1 RES1   0.0000
    17 C15       1.1589   -0.0439   -2.0861   C.ar      1 RES1   0.0000
    18 C16      -0.0063   -0.8670   -2.5099   C.ar      1 RES1   0.0000
    19 C17      -0.1158   -1.6827   -3.6341   C.ar      1 RES1   0.0000
    20 C18      -1.3784   -2.0862   -4.0599   C.ar      1 RES1   0.0000
    21 C19      -2.5229   -1.6322   -3.4088   C.ar      1 RES1   0.0000
    22 C20      -2.3233   -0.9365   -2.2311   C.ar      1 RES1   0.0000
    23 C21      -3.2826   -0.3364   -1.2579   C.ar      1 RES1   0.0000
    24 N2       -3.0315   -0.6847    0.0081   N.ar      1 RES1   0.0000
    25 N3       -3.4276    0.1295    0.9774   N.ar      1 RES1   0.0000
    26 C22      -4.0600    1.2640    0.6950   C.ar      1 RES1   0.0000
    27 C23      -4.3176    1.6018   -0.6721   C.ar      1 RES1   0.0000
    28 N4       -3.9310    0.7576   -1.6179   N.ar      1 RES1   0.0000
    29 C24      -4.7020    2.9769   -1.1138   C.3       1 RES1   0.0000
    30 C25      -3.4283    3.4532   -1.8569   C.3       1 RES1   0.0000
    31 C26      -5.8744    2.9507   -2.1114   C.3       1 RES1   0.0000
    32 C27      -5.0088    3.8921    0.0811   C.3       1 RES1   0.0000
    33 C28      -4.1168    3.6443    1.2971   C.3       1 RES1   0.0000
    34 C29      -4.2734    2.2116    1.8402   C.3       1 RES1   0.0000
    35 C30      -5.6756    2.0096    2.4437   C.3       1 RES1   0.0000
    36 C31      -3.2275    1.9378    2.9374   C.3       1 RES1   0.0000
    37 N5       -1.1064   -0.6002   -1.7804   N.ar      1 RES1   0.0000
    38 N6        0.8359    0.8520   -1.1265   N.ar      1 RES1   0.0000
    39 N7        0.0259    2.5971    0.7822   N.ar      1 RES1   0.0000
    40 N8       -0.2054    3.4494    1.8015   N.ar      1 RES1   0.0000
    41 C32       0.3281    4.6437    1.8403   C.ar      1 RES1   0.0000
    42 H1        1.0775    5.3477    5.0634   H         1 RES1   0.0000
    43 H2        2.1959    4.7919    3.8308   H         1 RES1   0.0000
    44 H3        0.8169    3.7909    4.3035   H         1 RES1   0.0000
    45 H4       -1.2258    5.9531    4.5462   H         1 RES1   0.0000
    46 H5       -1.5465    4.4589    3.6589   H         1 RES1   0.0000
    47 H6       -1.8354    6.0265    2.8870   H         1 RES1   0.0000
    48 H7        1.4990    7.1946    3.5896   H         1 RES1   0.0000
    49 H8       -0.1060    7.6137    3.0584   H         1 RES1   0.0000
    50 H9        2.4048    7.0782    1.4725   H         1 RES1   0.0000
    51 H10       1.2263    8.3707    1.3128   H         1 RES1   0.0000
    52 H11       1.2081    8.0303   -1.1867   H         1 RES1   0.0000
    53 H12       1.0012    6.4113   -1.8658   H         1 RES1   0.0000
    54 H13       2.4652    6.8162   -0.9561   H         1 RES1   0.0000
    55 H14      -1.0518    7.2215   -0.7998   H         1 RES1   0.0000
    56 H15      -1.1679    7.4885    0.9328   H         1 RES1   0.0000
    57 H16      -1.3991    5.8655    0.2709   H         1 RES1   0.0000
    58 H17       3.4482    2.9442   -1.4238   H         1 RES1   0.0000
    59 H18       4.2596    1.0542   -2.8533   H         1 RES1   0.0000
    60 H19       2.6810   -0.7376   -3.4651   H         1 RES1   0.0000
    61 H20       0.7462   -1.9668   -4.2130   H         1 RES1   0.0000
    62 H21      -1.4715   -2.7502   -4.9038   H         1 RES1   0.0000
    63 H22      -3.5135   -1.8138   -3.7907   H         1 RES1   0.0000
    64 H23      -3.3303    2.9243   -2.8010   H         1 RES1   0.0000
    65 H24      -2.5231    3.2822   -1.2454   H         1 RES1   0.0000
    66 H25      -3.5203    4.5119   -2.0738   H         1 RES1   0.0000
    67 H26      -5.6375    2.3387   -2.9753   H         1 RES1   0.0000
    68 H27      -6.0785    3.9568   -2.4675   H         1 RES1   0.0000
    69 H28      -6.7780    2.5573   -1.6522   H         1 RES1   0.0000
    70 H29      -6.0510    3.7730    0.3752   H         1 RES1   0.0000
    71 H30      -4.8950    4.9262   -0.2443   H         1 RES1   0.0000
    72 H31      -4.3986    4.3503    2.0811   H         1 RES1   0.0000
    73 H32      -3.0582    3.8288    1.0519   H         1 RES1   0.0000
    74 H33      -6.4598    2.0147    1.6928   H         1 RES1   0.0000
    75 H34      -5.8654    2.8173    3.1439   H         1 RES1   0.0000
    76 H35      -5.7196    1.0649    2.9760   H         1 RES1   0.0000
    77 H36      -2.1735    1.9520    2.5399   H         1 RES1   0.0000
    78 H37      -3.4375    0.9841    3.4225   H         1 RES1   0.0000
    79 H38      -3.3090    2.7151    3.6949   H         1 RES1   0.0000
    80 O1        0.0779   -1.3762    1.7571   O.3       1 RES1   0.0000
    81 H39       0.9876   -1.4579    2.0938   H         1 RES1   0.0000
    82 H40      -0.3086   -2.2511    1.9488   H         1 RES1   0.0000
@<TRIPOS>BOND
     1     1    11    1
     2     1    24    1
     3     1    25    1
     4     1    28    1
     5     1    37    1
     6     1    38    1
     7     1    39    1
     8     1    40    1
     9     1    80    1
    10     2     3    1
    11     2    42    1
    12     2    43    1
    13     2    44    1
    14     3     4    1
    15     3     5    1
    16     3    41    1
    17     4    45    1
    18     4    46    1
    19     4    47    1
    20     5     6    1
    21     5    48    1
    22     5    49    1
    23     6     7    1
    24     6    50    1
    25     6    51    1
    26     7     8    1
    27     7     9    1
    28     7    10    1
    29     8    52    1
    30     8    53    1
    31     8    54    1
    32     9    55    1
    33     9    56    1
    34     9    57    1
    35    10    11    1
    36    10    41    2
    37    11    12    2
    38    12    13    1
    39    12    39    1
    40    13    14    1
    41    13    38    2
    42    14    15    2
    43    14    58    1
    44    15    16    1
    45    15    59    1
    46    16    17    2
    47    16    60    1
    48    17    18    1
    49    17    38    1
    50    18    19    1
    51    18    37    2
    52    19    20    2
    53    19    61    1
    54    20    21    1
    55    20    62    1
    56    21    22    2
    57    21    63    1
    58    22    23    1
    59    22    37    1
    60    23    24    1
    61    23    28    2
    62    24    25    2
    63    25    26    1
    64    26    27    2
    65    26    34    1
    66    27    28    1
    67    27    29    1
    68    29    30    1
    69    29    31    1
    70    29    32    1
    71    30    64    1
    72    30    65    1
    73    30    66    1
    74    31    67    1
    75    31    68    1
    76    31    69    1
    77    32    33    1
    78    32    70    1
    79    32    71    1
    80    33    34    1
    81    33    72    1
    82    33    73    1
    83    34    35    1
    84    34    36    1
    85    35    74    1
    86    35    75    1
    87    35    76    1
    88    36    77    1
    89    36    78    1
    90    36    79    1
    91    39    40    2
    92    40    41    1
    93    80    81    1
    94    80    82    1
@<TRIPOS>SUBSTRUCTURE
     1 RES1       82 GROUP             0 ****  ****    0  
