@<TRIPOS>MOLECULE
am_c3_9H2O_c0_0_nunpairedes_0_charge_3 Charge: 3 Unpaired_Electrons: 2 XTB_Unpaired_Electrons: 0 XTB_Charge: 3
   214   219     1     0     0
SMALL
NoCharges
****
Generated from Architector

@<TRIPOS>ATOM
     1 Pr1       0.1227   -0.0673   -0.2645   Pr        1 RES1   0.0000
     2 C1       -1.0937   -3.2599    7.8906   C.3       1 RES1   0.0000
     3 C2       -0.6613   -3.1024    6.4389   C.3       1 RES1   0.0000
     4 C3       -1.5683   -2.1464    5.6649   C.3       1 RES1   0.0000
     5 C4       -2.9321   -2.7875    5.4544   C.3       1 RES1   0.0000
     6 C5       -3.7557   -2.1508    4.3453   C.3       1 RES1   0.0000
     7 C6       -4.4602   -0.8388    4.6736   C.3       1 RES1   0.0000
     8 C7       -5.5830   -0.5483    3.6726   C.3       1 RES1   0.0000
     9 C8       -5.1975    0.1205    2.3395   C.3       1 RES1   0.0000
    10 N1       -4.2569   -0.5333    1.4211   N.am      1 RES1   0.0000
    11 C9       -4.7551   -1.7005    0.6565   C.3       1 RES1   0.0000
    12 C10      -4.5315   -3.0370    1.3803   C.3       1 RES1   0.0000
    13 C11      -5.3539   -4.2431    0.8914   C.3       1 RES1   0.0000
    14 C12      -4.7392   -5.2214   -0.1164   C.3       1 RES1   0.0000
    15 C13      -3.8050   -6.3255    0.4150   C.3       1 RES1   0.0000
    16 C14      -2.2859   -6.0990    0.4419   C.3       1 RES1   0.0000
    17 C15      -1.5489   -6.1429   -0.9082   C.3       1 RES1   0.0000
    18 C16      -1.6161   -7.4656   -1.6626   C.3       1 RES1   0.0000
    19 C17      -3.0879    0.0179    1.0844   C.2       1 RES1   0.0000
    20 O1       -2.3604   -0.4235    0.1799   O.2       1 RES1   0.0000
    21 C18      -2.6062    1.2898    1.8286   C.3       1 RES1   0.0000
    22 O2       -1.2997    1.6943    1.3960   O.3       1 RES1   0.0000
    23 C19      -1.2288    2.9673    0.7549   C.3       1 RES1   0.0000
    24 C20      -1.2097    2.7679   -0.7713   C.2       1 RES1   0.0000
    25 O3       -1.0762    1.6098   -1.2095   O.2       1 RES1   0.0000
    26 N2       -1.3051    3.8170   -1.5803   N.am      1 RES1   0.0000
    27 C21      -1.3600    3.5690   -3.0113   C.3       1 RES1   0.0000
    28 C22      -1.2977    5.2078   -1.1686   C.3       1 RES1   0.0000
    29 H1       -0.3696   -3.8614    8.4311   H         1 RES1   0.0000
    30 H2       -1.1516   -2.2863    8.3735   H         1 RES1   0.0000
    31 H3       -2.0617   -3.7467    7.9554   H         1 RES1   0.0000
    32 H4        0.3603   -2.7276    6.4184   H         1 RES1   0.0000
    33 H5       -0.6622   -4.0735    5.9325   H         1 RES1   0.0000
    34 H6       -1.6662   -1.1989    6.1997   H         1 RES1   0.0000
    35 H7       -1.1221   -1.9241    4.6861   H         1 RES1   0.0000
    36 H8       -2.7715   -3.8352    5.1807   H         1 RES1   0.0000
    37 H9       -3.5009   -2.7755    6.3819   H         1 RES1   0.0000
    38 H10      -3.1240   -2.0269    3.4603   H         1 RES1   0.0000
    39 H11      -4.5397   -2.8756    4.1303   H         1 RES1   0.0000
    40 H12      -4.9113   -0.9391    5.6624   H         1 RES1   0.0000
    41 H13      -3.7615   -0.0023    4.7244   H         1 RES1   0.0000
    42 H14      -6.1557   -1.4629    3.5182   H         1 RES1   0.0000
    43 H15      -6.2659    0.1627    4.1392   H         1 RES1   0.0000
    44 H16      -6.1348    0.2645    1.7925   H         1 RES1   0.0000
    45 H17      -4.8045    1.1025    2.5909   H         1 RES1   0.0000
    46 H18      -5.8297   -1.5665    0.5038   H         1 RES1   0.0000
    47 H19      -4.2612   -1.6859   -0.3147   H         1 RES1   0.0000
    48 H20      -3.4698   -3.2783    1.4263   H         1 RES1   0.0000
    49 H21      -4.8745   -2.8636    2.3884   H         1 RES1   0.0000
    50 H22      -5.6533   -4.8198    1.7659   H         1 RES1   0.0000
    51 H23      -6.2780   -3.8656    0.4574   H         1 RES1   0.0000
    52 H24      -5.5805   -5.7360   -0.5826   H         1 RES1   0.0000
    53 H25      -4.2625   -4.6556   -0.9061   H         1 RES1   0.0000
    54 H26      -4.1160   -6.5743    1.4295   H         1 RES1   0.0000
    55 H27      -3.9691   -7.2161   -0.1873   H         1 RES1   0.0000
    56 H28      -2.0700   -5.1497    0.9421   H         1 RES1   0.0000
    57 H29      -1.8604   -6.8924    1.0607   H         1 RES1   0.0000
    58 H30      -1.9259   -5.3731   -1.5794   H         1 RES1   0.0000
    59 H31      -0.4890   -5.9273   -0.7170   H         1 RES1   0.0000
    60 H32      -2.6294   -7.6901   -1.9776   H         1 RES1   0.0000
    61 H33      -1.0001   -7.3890   -2.5555   H         1 RES1   0.0000
    62 H34      -1.2412   -8.2884   -1.0637   H         1 RES1   0.0000
    63 H35      -3.3061    2.1075    1.6328   H         1 RES1   0.0000
    64 H36      -2.5480    1.0816    2.9044   H         1 RES1   0.0000
    65 H37      -2.0512    3.6338    1.0528   H         1 RES1   0.0000
    66 H38      -0.2875    3.4407    1.0742   H         1 RES1   0.0000
    67 H39      -1.1811    2.5072   -3.1774   H         1 RES1   0.0000
    68 H40      -2.3443    3.8346   -3.4027   H         1 RES1   0.0000
    69 H41      -0.6046    4.1626   -3.5274   H         1 RES1   0.0000
    70 H42      -0.3765    5.4536   -0.6409   H         1 RES1   0.0000
    71 H43      -1.3515    5.8326   -2.0577   H         1 RES1   0.0000
    72 H44      -2.1435    5.4671   -0.5350   H         1 RES1   0.0000
    73 C23       5.4925    3.4176   -7.8897   C.3       1 RES1   0.0000
    74 C24       5.3886    1.8958   -7.8553   C.3       1 RES1   0.0000
    75 C25       4.3004    1.3938   -8.8053   C.3       1 RES1   0.0000
    76 C26       4.1262   -0.1276   -8.8096   C.3       1 RES1   0.0000
    77 C27       3.5893   -0.7228   -7.5047   C.3       1 RES1   0.0000
    78 C28       2.1639   -0.2482   -7.2231   C.3       1 RES1   0.0000
    79 C29       1.5538   -0.7640   -5.9146   C.3       1 RES1   0.0000
    80 C30       2.3474   -0.5051   -4.6248   C.3       1 RES1   0.0000
    81 N3        2.2733    0.8320   -4.0117   N.am      1 RES1   0.0000
    82 C31       2.8671    1.9412   -4.7460   C.3       1 RES1   0.0000
    83 C32       1.9843    3.1469   -5.0760   C.3       1 RES1   0.0000
    84 C33       0.7322    2.8772   -5.9065   C.3       1 RES1   0.0000
    85 C34       0.1702    4.2151   -6.3962   C.3       1 RES1   0.0000
    86 C35      -1.0898    4.0977   -7.2555   C.3       1 RES1   0.0000
    87 C36      -2.3820    3.8981   -6.4559   C.3       1 RES1   0.0000
    88 C37      -3.1358    5.1929   -6.1231   C.3       1 RES1   0.0000
    89 C38      -2.3681    6.2420   -5.3229   C.3       1 RES1   0.0000
    90 C39       2.0121    0.9009   -2.7108   C.2       1 RES1   0.0000
    91 O4        1.6827   -0.0756   -2.0198   O.2       1 RES1   0.0000
    92 C40       2.1768    2.2326   -1.9470   C.3       1 RES1   0.0000
    93 O5        1.6808    2.0293   -0.6235   O.3       1 RES1   0.0000
    94 C41       2.5278    2.5046    0.4077   C.3       1 RES1   0.0000
    95 C42       2.3692    1.5858    1.6303   C.2       1 RES1   0.0000
    96 O6        1.5496    0.6458    1.6015   O.2       1 RES1   0.0000
    97 N4        3.1887    1.8352    2.6437   N.am      1 RES1   0.0000
    98 C43       3.3697    0.8928    3.7294   C.3       1 RES1   0.0000
    99 C44       4.0063    3.0293    2.7352   C.3       1 RES1   0.0000
   100 H45       6.2717    3.7640   -7.2156   H         1 RES1   0.0000
   101 H46       4.5481    3.8752   -7.5961   H         1 RES1   0.0000
   102 H47       5.7345    3.7576   -8.8928   H         1 RES1   0.0000
   103 H48       5.1844    1.5737   -6.8284   H         1 RES1   0.0000
   104 H49       6.3440    1.4571   -8.1489   H         1 RES1   0.0000
   105 H50       4.5676    1.7026   -9.8176   H         1 RES1   0.0000
   106 H51       3.3549    1.8870   -8.5636   H         1 RES1   0.0000
   107 H52       5.0895   -0.5850   -9.0364   H         1 RES1   0.0000
   108 H53       3.4438   -0.3927   -9.6169   H         1 RES1   0.0000
   109 H54       4.2675   -0.4479   -6.6942   H         1 RES1   0.0000
   110 H55       3.5993   -1.8108   -7.5882   H         1 RES1   0.0000
   111 H56       1.5239   -0.5839   -8.0440   H         1 RES1   0.0000
   112 H57       2.1519    0.8381   -7.2385   H         1 RES1   0.0000
   113 H58       1.4839   -1.8511   -6.0062   H         1 RES1   0.0000
   114 H59       0.5400   -0.3726   -5.8154   H         1 RES1   0.0000
   115 H60       3.3987   -0.7324   -4.8237   H         1 RES1   0.0000
   116 H61       1.9891   -1.1932   -3.8585   H         1 RES1   0.0000
   117 H62       3.2353    1.5322   -5.6836   H         1 RES1   0.0000
   118 H63       3.7274    2.3036   -4.1773   H         1 RES1   0.0000
   119 H64       2.6296    3.8195   -5.6452   H         1 RES1   0.0000
   120 H65       1.6859    3.6930   -4.1803   H         1 RES1   0.0000
   121 H66      -0.0023    2.3074   -5.3306   H         1 RES1   0.0000
   122 H67       0.9876    2.2892   -6.7843   H         1 RES1   0.0000
   123 H68       0.9466    4.6850   -7.0013   H         1 RES1   0.0000
   124 H69      -0.0216    4.8727   -5.5480   H         1 RES1   0.0000
   125 H70      -0.9573    3.2610   -7.9425   H         1 RES1   0.0000
   126 H71      -1.1874    4.9989   -7.8613   H         1 RES1   0.0000
   127 H72      -2.1578    3.3378   -5.5458   H         1 RES1   0.0000
   128 H73      -3.0663    3.2857   -7.0458   H         1 RES1   0.0000
   129 H74      -4.0444    4.9244   -5.5763   H         1 RES1   0.0000
   130 H75      -3.4527    5.6496   -7.0610   H         1 RES1   0.0000
   131 H76      -2.0299    5.8509   -4.3658   H         1 RES1   0.0000
   132 H77      -3.0222    7.0869   -5.1215   H         1 RES1   0.0000
   133 H78      -1.5070    6.6045   -5.8768   H         1 RES1   0.0000
   134 H79       1.6242    3.0541   -2.4071   H         1 RES1   0.0000
   135 H80       3.2409    2.4938   -1.9281   H         1 RES1   0.0000
   136 H81       2.2931    3.5528    0.6562   H         1 RES1   0.0000
   137 H82       3.5853    2.4557    0.1086   H         1 RES1   0.0000
   138 H83       2.6740    0.0675    3.5997   H         1 RES1   0.0000
   139 H84       4.3976    0.5187    3.7031   H         1 RES1   0.0000
   140 H85       3.2061    1.3793    4.6926   H         1 RES1   0.0000
   141 H86       4.7118    3.1085    1.9094   H         1 RES1   0.0000
   142 H87       4.5657    2.9911    3.6667   H         1 RES1   0.0000
   143 H88       3.3840    3.9231    2.7552   H         1 RES1   0.0000
   144 C45       5.9468   -6.7332    4.3251   C.3       1 RES1   0.0000
   145 C46       6.5178   -5.8993    3.1814   C.3       1 RES1   0.0000
   146 C47       7.3105   -4.6994    3.7022   C.3       1 RES1   0.0000
   147 C48       7.9534   -3.8489    2.6029   C.3       1 RES1   0.0000
   148 C49       6.9747   -3.2483    1.5900   C.3       1 RES1   0.0000
   149 C50       5.9713   -2.2942    2.2421   C.3       1 RES1   0.0000
   150 C51       4.8998   -1.8088    1.2626   C.3       1 RES1   0.0000
   151 C52       3.8951   -2.9094    0.8945   C.3       1 RES1   0.0000
   152 N5        2.6379   -2.9589    1.6534   N.am      1 RES1   0.0000
   153 C53       2.5990   -3.7005    2.9051   C.3       1 RES1   0.0000
   154 C54       2.2300   -2.8873    4.1620   C.3       1 RES1   0.0000
   155 C55       3.4411   -2.4210    4.9782   C.3       1 RES1   0.0000
   156 C56       3.1398   -2.1099    6.4546   C.3       1 RES1   0.0000
   157 C57       2.8079   -0.6690    6.8601   C.3       1 RES1   0.0000
   158 C58       1.4385   -0.1083    6.4708   C.3       1 RES1   0.0000
   159 C59       1.0691    1.1006    7.3451   C.3       1 RES1   0.0000
   160 C60       0.4609    0.6877    8.6827   C.3       1 RES1   0.0000
   161 C61       1.5556   -2.4769    1.0514   C.2       1 RES1   0.0000
   162 O7        1.6411   -1.7088    0.0759   O.2       1 RES1   0.0000
   163 C62       0.1197   -2.9057    1.4378   C.3       1 RES1   0.0000
   164 O8       -0.7919   -2.2717    0.5394   O.3       1 RES1   0.0000
   165 C63      -1.2498   -3.0410   -0.5913   C.3       1 RES1   0.0000
   166 C64      -1.3593   -2.1747   -1.8708   C.2       1 RES1   0.0000
   167 O9       -0.5840   -1.2104   -1.9893   O.2       1 RES1   0.0000
   168 N6       -2.2270   -2.4332   -2.8482   N.am      1 RES1   0.0000
   169 C65      -2.2009   -1.6031   -4.0448   C.3       1 RES1   0.0000
   170 C66      -3.1202   -3.5537   -2.9999   C.3       1 RES1   0.0000
   171 H89       5.3919   -7.5829    3.9356   H         1 RES1   0.0000
   172 H90       5.2785   -6.1368    4.9458   H         1 RES1   0.0000
   173 H91       6.7460   -7.1102    4.9572   H         1 RES1   0.0000
   174 H92       5.6942   -5.5632    2.5409   H         1 RES1   0.0000
   175 H93       7.1759   -6.5204    2.5701   H         1 RES1   0.0000
   176 H94       8.1111   -5.0715    4.3443   H         1 RES1   0.0000
   177 H95       6.6620   -4.0803    4.3289   H         1 RES1   0.0000
   178 H96       8.6723   -4.4671    2.0634   H         1 RES1   0.0000
   179 H97       8.5093   -3.0381    3.0771   H         1 RES1   0.0000
   180 H98       6.4607   -4.0576    1.0684   H         1 RES1   0.0000
   181 H99       7.5509   -2.6998    0.8425   H         1 RES1   0.0000
   182 H100      6.5286   -1.4421    2.6383   H         1 RES1   0.0000
   183 H101      5.4864   -2.7962    3.0755   H         1 RES1   0.0000
   184 H102      5.4040   -1.4833    0.3504   H         1 RES1   0.0000
   185 H103      4.3579   -0.9505    1.6619   H         1 RES1   0.0000
   186 H104      4.3828   -3.8785    1.0103   H         1 RES1   0.0000
   187 H105      3.6152   -2.7987   -0.1532   H         1 RES1   0.0000
   188 H106      3.5866   -4.1343    3.0604   H         1 RES1   0.0000
   189 H107      1.8916   -4.5240    2.7948   H         1 RES1   0.0000
   190 H108      1.6564   -3.5531    4.8052   H         1 RES1   0.0000
   191 H109      1.5883   -2.0435    3.9051   H         1 RES1   0.0000
   192 H110      3.9324   -1.5688    4.5136   H         1 RES1   0.0000
   193 H111      4.1581   -3.2424    4.9768   H         1 RES1   0.0000
   194 H112      4.0342   -2.3732    7.0186   H         1 RES1   0.0000
   195 H113      2.3520   -2.7760    6.8048   H         1 RES1   0.0000
   196 H114      3.5874    0.0009    6.4906   H         1 RES1   0.0000
   197 H115      2.8567   -0.6506    7.9501   H         1 RES1   0.0000
   198 H116      0.6745   -0.8662    6.6155   H         1 RES1   0.0000
   199 H117      1.4139    0.1792    5.4157   H         1 RES1   0.0000
   200 H118      0.3413    1.7218    6.8155   H         1 RES1   0.0000
   201 H119      1.9602    1.7083    7.5236   H         1 RES1   0.0000
   202 H120     -0.4331    0.0876    8.5247   H         1 RES1   0.0000
   203 H121      0.1822    1.5674    9.2558   H         1 RES1   0.0000
   204 H122      1.1604    0.1066    9.2768   H         1 RES1   0.0000
   205 H123     -0.1497   -2.5582    2.4420   H         1 RES1   0.0000
   206 H124      0.0164   -3.9965    1.4100   H         1 RES1   0.0000
   207 H125     -2.2259   -3.4591   -0.3251   H         1 RES1   0.0000
   208 H126     -0.5252   -3.8380   -0.7916   H         1 RES1   0.0000
   209 H127     -1.5004   -0.7850   -3.9047   H         1 RES1   0.0000
   210 H128     -3.1976   -1.2070   -4.2468   H         1 RES1   0.0000
   211 H129     -1.8814   -2.2149   -4.8889   H         1 RES1   0.0000
   212 H130     -3.3135   -4.0241   -2.0468   H         1 RES1   0.0000
   213 H131     -2.6923   -4.2892   -3.6869   H         1 RES1   0.0000
   214 H132     -4.0735   -3.2037   -3.3986   H         1 RES1   0.0000
@<TRIPOS>BOND
     1     1    20    1
     2     1    22    1
     3     1    25    1
     4     1    91    1
     5     1    93    1
     6     1    96    1
     7     1   162    1
     8     1   164    1
     9     1   167    1
    10     2     3    1
    11     2    29    1
    12     2    30    1
    13     2    31    1
    14     3     4    1
    15     3    32    1
    16     3    33    1
    17     4     5    1
    18     4    34    1
    19     4    35    1
    20     5     6    1
    21     5    36    1
    22     5    37    1
    23     6     7    1
    24     6    38    1
    25     6    39    1
    26     7     8    1
    27     7    40    1
    28     7    41    1
    29     8     9    1
    30     8    42    1
    31     8    43    1
    32     9    10    1
    33     9    44    1
    34     9    45    1
    35    10    11    1
    36    10    19    1
    37    11    12    1
    38    11    46    1
    39    11    47    1
    40    12    13    1
    41    12    48    1
    42    12    49    1
    43    13    14    1
    44    13    50    1
    45    13    51    1
    46    14    15    1
    47    14    52    1
    48    14    53    1
    49    15    16    1
    50    15    54    1
    51    15    55    1
    52    16    17    1
    53    16    56    1
    54    16    57    1
    55    17    18    1
    56    17    58    1
    57    17    59    1
    58    18    60    1
    59    18    61    1
    60    18    62    1
    61    19    20    2
    62    19    21    1
    63    21    22    1
    64    21    63    1
    65    21    64    1
    66    22    23    1
    67    23    24    1
    68    23    65    1
    69    23    66    1
    70    24    25    2
    71    24    26    1
    72    26    27    1
    73    26    28    1
    74    27    67    1
    75    27    68    1
    76    27    69    1
    77    28    70    1
    78    28    71    1
    79    28    72    1
    80    73    74    1
    81    73   100    1
    82    73   101    1
    83    73   102    1
    84    74    75    1
    85    74   103    1
    86    74   104    1
    87    75    76    1
    88    75   105    1
    89    75   106    1
    90    76    77    1
    91    76   107    1
    92    76   108    1
    93    77    78    1
    94    77   109    1
    95    77   110    1
    96    78    79    1
    97    78   111    1
    98    78   112    1
    99    79    80    1
   100    79   113    1
   101    79   114    1
   102    80    81    1
   103    80   115    1
   104    80   116    1
   105    81    82    1
   106    81    90    1
   107    82    83    1
   108    82   117    1
   109    82   118    1
   110    83    84    1
   111    83   119    1
   112    83   120    1
   113    84    85    1
   114    84   121    1
   115    84   122    1
   116    85    86    1
   117    85   123    1
   118    85   124    1
   119    86    87    1
   120    86   125    1
   121    86   126    1
   122    87    88    1
   123    87   127    1
   124    87   128    1
   125    88    89    1
   126    88   129    1
   127    88   130    1
   128    89   131    1
   129    89   132    1
   130    89   133    1
   131    90    91    2
   132    90    92    1
   133    92    93    1
   134    92   134    1
   135    92   135    1
   136    93    94    1
   137    94    95    1
   138    94   136    1
   139    94   137    1
   140    95    96    2
   141    95    97    1
   142    97    98    1
   143    97    99    1
   144    98   138    1
   145    98   139    1
   146    98   140    1
   147    99   141    1
   148    99   142    1
   149    99   143    1
   150   144   145    1
   151   144   171    1
   152   144   172    1
   153   144   173    1
   154   145   146    1
   155   145   174    1
   156   145   175    1
   157   146   147    1
   158   146   176    1
   159   146   177    1
   160   147   148    1
   161   147   178    1
   162   147   179    1
   163   148   149    1
   164   148   180    1
   165   148   181    1
   166   149   150    1
   167   149   182    1
   168   149   183    1
   169   150   151    1
   170   150   184    1
   171   150   185    1
   172   151   152    1
   173   151   186    1
   174   151   187    1
   175   152   153    1
   176   152   161    1
   177   153   154    1
   178   153   188    1
   179   153   189    1
   180   154   155    1
   181   154   190    1
   182   154   191    1
   183   155   156    1
   184   155   192    1
   185   155   193    1
   186   156   157    1
   187   156   194    1
   188   156   195    1
   189   157   158    1
   190   157   196    1
   191   157   197    1
   192   158   159    1
   193   158   198    1
   194   158   199    1
   195   159   160    1
   196   159   200    1
   197   159   201    1
   198   160   202    1
   199   160   203    1
   200   160   204    1
   201   161   162    2
   202   161   163    1
   203   163   164    1
   204   163   205    1
   205   163   206    1
   206   164   165    1
   207   165   166    1
   208   165   207    1
   209   165   208    1
   210   166   167    2
   211   166   168    1
   212   168   169    1
   213   168   170    1
   214   169   209    1
   215   169   210    1
   216   169   211    1
   217   170   212    1
   218   170   213    1
   219   170   214    1
@<TRIPOS>SUBSTRUCTURE
     1 RES1      214 GROUP             0 ****  ****    0  
