@<TRIPOS>MOLECULE
cn9_YICLED_0_nunpairedes_0_charge_3 Charge: 3 Unpaired_Electrons: 2 XTB_Unpaired_Electrons: 0 XTB_Charge: 3
   343   351     1     0     0
SMALL
NoCharges
****
Generated from Architector

@<TRIPOS>ATOM
     1 Pr1      -0.0276    0.1122    0.0519   Pr        1 RES1   0.0000
     2 C1        2.2796   -1.2889   -9.9547   C.3       1 RES1   0.0000
     3 C2        0.7627   -1.4390   -9.9938   C.3       1 RES1   0.0000
     4 C3        0.1088   -1.5168   -8.6106   C.3       1 RES1   0.0000
     5 C4        0.7262   -2.6156   -7.7483   C.3       1 RES1   0.0000
     6 C5       -0.0492   -2.9657   -6.4750   C.3       1 RES1   0.0000
     7 C6       -0.5011   -1.8094   -5.5784   C.3       1 RES1   0.0000
     8 C7        0.5686   -0.8301   -5.0850   C.3       1 RES1   0.0000
     9 C8        1.8884   -1.4391   -4.6204   C.3       1 RES1   0.0000
    10 C9        2.7105   -0.4225   -3.8300   C.3       1 RES1   0.0000
    11 C10       3.0298    0.8494   -4.6116   C.3       1 RES1   0.0000
    12 C11       3.9836    1.7790   -3.8588   C.3       1 RES1   0.0000
    13 C12       3.4153    2.3478   -2.5429   C.3       1 RES1   0.0000
    14 N1        3.8825    1.7277   -1.2982   N.am      1 RES1   0.0000
    15 C13       5.1888    2.1576   -0.8094   C.3       1 RES1   0.0000
    16 C14       6.3999    1.5732   -1.5483   C.3       1 RES1   0.0000
    17 C15       6.3886    0.0490   -1.6553   C.3       1 RES1   0.0000
    18 C16       7.7538   -0.4802   -2.1066   C.3       1 RES1   0.0000
    19 C17       7.6782   -1.8370   -2.8076   C.3       1 RES1   0.0000
    20 C18       6.9946   -2.9653   -2.0290   C.3       1 RES1   0.0000
    21 C19       7.6725   -3.3678   -0.7094   C.3       1 RES1   0.0000
    22 C20       7.0344   -2.7266    0.5253   C.3       1 RES1   0.0000
    23 C21       7.4355   -3.3962    1.8407   C.3       1 RES1   0.0000
    24 C22       8.9130   -3.2058    2.1732   C.3       1 RES1   0.0000
    25 C23       9.3045   -3.8310    3.5114   C.3       1 RES1   0.0000
    26 C24       8.7243   -3.0984    4.7160   C.3       1 RES1   0.0000
    27 C25       3.0461    0.9930   -0.5753   C.2       1 RES1   0.0000
    28 O1        1.9094    0.6644   -0.9692   O.2       1 RES1   0.0000
    29 C26       3.4732    0.5267    0.8310   C.3       1 RES1   0.0000
    30 O2        2.3926   -0.1479    1.4670   O.3       1 RES1   0.0000
    31 C27       2.6146   -1.5319    1.7620   C.3       1 RES1   0.0000
    32 C28       3.6383   -1.8085    2.8589   C.3       1 RES1   0.0000
    33 C29       3.6313   -3.3089    3.1356   C.3       1 RES1   0.0000
    34 C30       2.2563   -3.7257    3.6398   C.3       1 RES1   0.0000
    35 N2        1.1865   -3.3086    2.7372   N.am      1 RES1   0.0000
    36 C31       0.2091   -4.3029    2.2760   C.3       1 RES1   0.0000
    37 C32      -1.1028   -4.6113    3.0052   C.3       1 RES1   0.0000
    38 C33      -1.6834   -5.9162    2.4008   C.3       1 RES1   0.0000
    39 C34      -3.0038   -5.8173    1.6213   C.3       1 RES1   0.0000
    40 C35      -4.2495   -5.9003    2.5078   C.3       1 RES1   0.0000
    41 C36      -5.5228   -6.2640    1.7400   C.3       1 RES1   0.0000
    42 C37       1.2435   -2.1486    2.0811   C.2       1 RES1   0.0000
    43 O3        0.2300   -1.6336    1.5882   O.2       1 RES1   0.0000
    44 H1        2.6569   -1.1170  -10.9582   H         1 RES1   0.0000
    45 H2        2.7533   -2.1892   -9.5730   H         1 RES1   0.0000
    46 H3        2.5745   -0.4464   -9.3328   H         1 RES1   0.0000
    47 H4        0.5115   -2.3397  -10.5563   H         1 RES1   0.0000
    48 H5        0.3348   -0.5875  -10.5262   H         1 RES1   0.0000
    49 H6       -0.9592   -1.7091   -8.7439   H         1 RES1   0.0000
    50 H7        0.2154   -0.5515   -8.1097   H         1 RES1   0.0000
    51 H8        1.7469   -2.3305   -7.4911   H         1 RES1   0.0000
    52 H9        0.7838   -3.5303   -8.3445   H         1 RES1   0.0000
    53 H10       0.5713   -3.6559   -5.8940   H         1 RES1   0.0000
    54 H11      -0.9566   -3.5040   -6.7626   H         1 RES1   0.0000
    55 H12      -1.0002   -2.2601   -4.7120   H         1 RES1   0.0000
    56 H13      -1.2545   -1.2334   -6.1173   H         1 RES1   0.0000
    57 H14       0.1480   -0.2759   -4.2336   H         1 RES1   0.0000
    58 H15       0.7723   -0.1155   -5.8809   H         1 RES1   0.0000
    59 H16       2.4674   -1.7884   -5.4737   H         1 RES1   0.0000
    60 H17       1.6930   -2.2966   -3.9711   H         1 RES1   0.0000
    61 H18       3.6503   -0.8871   -3.5226   H         1 RES1   0.0000
    62 H19       2.1498   -0.1628   -2.9279   H         1 RES1   0.0000
    63 H20       2.1117    1.3890   -4.8448   H         1 RES1   0.0000
    64 H21       3.4976    0.5782   -5.5600   H         1 RES1   0.0000
    65 H22       4.2273    2.6221   -4.5082   H         1 RES1   0.0000
    66 H23       4.9062    1.2391   -3.6666   H         1 RES1   0.0000
    67 H24       2.3263    2.2603   -2.5528   H         1 RES1   0.0000
    68 H25       3.6826    3.4053   -2.4667   H         1 RES1   0.0000
    69 H26       5.2857    1.8921    0.2402   H         1 RES1   0.0000
    70 H27       5.2273    3.2485   -0.8862   H         1 RES1   0.0000
    71 H28       7.2805    1.8797   -0.9809   H         1 RES1   0.0000
    72 H29       6.4935    2.0160   -2.5392   H         1 RES1   0.0000
    73 H30       5.6273   -0.2740   -2.3685   H         1 RES1   0.0000
    74 H31       6.1309   -0.3842   -0.6878   H         1 RES1   0.0000
    75 H32       8.4302   -0.5379   -1.2536   H         1 RES1   0.0000
    76 H33       8.1889    0.2276   -2.8144   H         1 RES1   0.0000
    77 H34       8.6932   -2.1508   -3.0571   H         1 RES1   0.0000
    78 H35       7.1403   -1.7073   -3.7518   H         1 RES1   0.0000
    79 H36       6.9844   -3.8324   -2.6924   H         1 RES1   0.0000
    80 H37       5.9502   -2.6987   -1.8372   H         1 RES1   0.0000
    81 H38       8.7293   -3.1087   -0.7527   H         1 RES1   0.0000
    82 H39       7.6104   -4.4522   -0.5985   H         1 RES1   0.0000
    83 H40       5.9419   -2.7874    0.4243   H         1 RES1   0.0000
    84 H41       7.3141   -1.6717    0.5773   H         1 RES1   0.0000
    85 H42       7.2116   -4.4642    1.7910   H         1 RES1   0.0000
    86 H43       6.8290   -2.9674    2.6434   H         1 RES1   0.0000
    87 H44       9.1449   -2.1381    2.1921   H         1 RES1   0.0000
    88 H45       9.5137   -3.6623    1.3868   H         1 RES1   0.0000
    89 H46      10.3917   -3.8224    3.5912   H         1 RES1   0.0000
    90 H47       8.9823   -4.8736    3.5298   H         1 RES1   0.0000
    91 H48       9.0339   -2.0552    4.7151   H         1 RES1   0.0000
    92 H49       9.0797   -3.5555    5.6356   H         1 RES1   0.0000
    93 H50       7.6361   -3.1359    4.7195   H         1 RES1   0.0000
    94 H51       3.7152    1.4008    1.4488   H         1 RES1   0.0000
    95 H52       4.3535   -0.1146    0.7536   H         1 RES1   0.0000
    96 H53       2.9251   -2.0421    0.8300   H         1 RES1   0.0000
    97 H54       3.3483   -1.2621    3.7565   H         1 RES1   0.0000
    98 H55       4.6400   -1.4884    2.5664   H         1 RES1   0.0000
    99 H56       4.3851   -3.5498    3.8869   H         1 RES1   0.0000
   100 H57       3.8767   -3.8526    2.2208   H         1 RES1   0.0000
   101 H58       2.0870   -3.2775    4.6237   H         1 RES1   0.0000
   102 H59       2.2046   -4.8078    3.7512   H         1 RES1   0.0000
   103 H60       0.7715   -5.2355    2.2491   H         1 RES1   0.0000
   104 H61      -0.0353   -3.9986    1.2552   H         1 RES1   0.0000
   105 H62      -1.8142   -3.7998    2.8717   H         1 RES1   0.0000
   106 H63      -0.9194   -4.7425    4.0730   H         1 RES1   0.0000
   107 H64      -1.8174   -6.6492    3.1943   H         1 RES1   0.0000
   108 H65      -0.9421   -6.3346    1.7169   H         1 RES1   0.0000
   109 H66      -3.0348   -6.6536    0.9179   H         1 RES1   0.0000
   110 H67      -3.0228   -4.9032    1.0188   H         1 RES1   0.0000
   111 H68      -4.4027   -4.9481    3.0272   H         1 RES1   0.0000
   112 H69      -4.0854   -6.6709    3.2660   H         1 RES1   0.0000
   113 H70      -6.3672   -6.2736    2.4264   H         1 RES1   0.0000
   114 H71      -5.4464   -7.2580    1.2992   H         1 RES1   0.0000
   115 H72      -5.7454   -5.5486    0.9472   H         1 RES1   0.0000
   116 C38       6.3761   -7.0572    3.8349   C.3       1 RES1   0.0000
   117 C39       6.2357   -6.5452    5.2670   C.3       1 RES1   0.0000
   118 C40       4.7957   -6.2015    5.6576   C.3       1 RES1   0.0000
   119 C41       3.9341   -7.4484    5.8413   C.3       1 RES1   0.0000
   120 C42       2.4321   -7.1609    5.9646   C.3       1 RES1   0.0000
   121 C43       1.6026   -8.2474    5.2699   C.3       1 RES1   0.0000
   122 C44       1.1772   -7.8823    3.8405   C.3       1 RES1   0.0000
   123 C45       2.3252   -7.6805    2.8368   C.3       1 RES1   0.0000
   124 C46       1.8321   -7.5825    1.3732   C.3       1 RES1   0.0000
   125 C47       2.2939   -6.3510    0.5577   C.3       1 RES1   0.0000
   126 C48       1.2320   -6.0283   -0.5040   C.3       1 RES1   0.0000
   127 C49       1.4242   -4.7546   -1.3562   C.3       1 RES1   0.0000
   128 N3        0.1297   -4.1916   -1.7857   N.am      1 RES1   0.0000
   129 C50      -0.4461   -4.7546   -3.0165   C.3       1 RES1   0.0000
   130 C51      -0.3216   -6.2582   -3.2596   C.3       1 RES1   0.0000
   131 C52      -1.2463   -7.1697   -2.4389   C.3       1 RES1   0.0000
   132 C53      -1.8684   -8.2132   -3.3702   C.3       1 RES1   0.0000
   133 C54      -2.6513   -9.3252   -2.6742   C.3       1 RES1   0.0000
   134 C55      -3.7356   -8.8945   -1.6847   C.3       1 RES1   0.0000
   135 C56      -4.9219   -8.1250   -2.2787   C.3       1 RES1   0.0000
   136 C57      -4.6811   -6.6196   -2.4358   C.3       1 RES1   0.0000
   137 C58      -5.9702   -5.7990   -2.4443   C.3       1 RES1   0.0000
   138 C59      -6.8880   -6.1538   -3.6100   C.3       1 RES1   0.0000
   139 C60      -8.2430   -5.4515   -3.5344   C.3       1 RES1   0.0000
   140 C61      -8.1613   -3.9428   -3.7398   C.3       1 RES1   0.0000
   141 C62      -0.2222   -2.9586   -1.3940   C.2       1 RES1   0.0000
   142 O4        0.5631   -2.1711   -0.8279   O.2       1 RES1   0.0000
   143 C63      -1.6667   -2.4505   -1.6246   C.3       1 RES1   0.0000
   144 O5       -2.0082   -1.4060   -0.7055   O.3       1 RES1   0.0000
   145 C64      -2.8433   -1.8206    0.3906   C.3       1 RES1   0.0000
   146 C65      -4.3522   -1.6169    0.2219   C.3       1 RES1   0.0000
   147 C66      -5.0218   -2.3079    1.4174   C.3       1 RES1   0.0000
   148 C67      -4.3321   -2.0939    2.7845   C.3       1 RES1   0.0000
   149 N4       -3.1011   -1.3218    2.7673   N.am      1 RES1   0.0000
   150 C68      -2.3436   -1.2023    4.0238   C.3       1 RES1   0.0000
   151 C69      -3.0160   -0.6643    5.2878   C.3       1 RES1   0.0000
   152 C70      -2.2611   -1.1213    6.5494   C.3       1 RES1   0.0000
   153 C71      -0.8563   -0.5179    6.7430   C.3       1 RES1   0.0000
   154 C72      -0.7943    0.4661    7.9151   C.3       1 RES1   0.0000
   155 C73       0.5909    1.0730    8.1107   C.3       1 RES1   0.0000
   156 C74      -2.4897   -0.9922    1.6305   C.2       1 RES1   0.0000
   157 O6       -1.7014   -0.0414    1.5378   O.2       1 RES1   0.0000
   158 H73       7.4246   -7.2313    3.6049   H         1 RES1   0.0000
   159 H74       5.8488   -7.9972    3.6909   H         1 RES1   0.0000
   160 H75       5.9883   -6.3307    3.1202   H         1 RES1   0.0000
   161 H76       6.6114   -7.2971    5.9615   H         1 RES1   0.0000
   162 H77       6.8553   -5.6527    5.3747   H         1 RES1   0.0000
   163 H78       4.7957   -5.6152    6.5793   H         1 RES1   0.0000
   164 H79       4.3578   -5.5787    4.8718   H         1 RES1   0.0000
   165 H80       4.2810   -7.9998    6.7159   H         1 RES1   0.0000
   166 H81       4.0898   -8.0943    4.9789   H         1 RES1   0.0000
   167 H82       2.1457   -7.0950    7.0139   H         1 RES1   0.0000
   168 H83       2.2031   -6.1864    5.5227   H         1 RES1   0.0000
   169 H84       2.1713   -9.1760    5.2654   H         1 RES1   0.0000
   170 H85       0.6947   -8.4363    5.8442   H         1 RES1   0.0000
   171 H86       0.5277   -8.6791    3.4713   H         1 RES1   0.0000
   172 H87       0.5760   -6.9701    3.8975   H         1 RES1   0.0000
   173 H88       2.8891   -6.7829    3.1020   H         1 RES1   0.0000
   174 H89       3.0090   -8.5257    2.9302   H         1 RES1   0.0000
   175 H90       2.1365   -8.4773    0.8335   H         1 RES1   0.0000
   176 H91       0.7405   -7.5917    1.3857   H         1 RES1   0.0000
   177 H92       2.4565   -5.4949    1.2139   H         1 RES1   0.0000
   178 H93       3.2473   -6.5640    0.0722   H         1 RES1   0.0000
   179 H94       1.1838   -6.9002   -1.1544   H         1 RES1   0.0000
   180 H95       0.2654   -5.9360   -0.0044   H         1 RES1   0.0000
   181 H96       1.9305   -3.9818   -0.7757   H         1 RES1   0.0000
   182 H97       2.0284   -4.9617   -2.2440   H         1 RES1   0.0000
   183 H98      -1.4989   -4.4809   -3.0845   H         1 RES1   0.0000
   184 H99       0.0748   -4.2654   -3.8513   H         1 RES1   0.0000
   185 H100     -0.6009   -6.3701   -4.3108   H         1 RES1   0.0000
   186 H101      0.7159   -6.5799   -3.1919   H         1 RES1   0.0000
   187 H102     -0.7149   -7.6870   -1.6383   H         1 RES1   0.0000
   188 H103     -2.0234   -6.5638   -1.9740   H         1 RES1   0.0000
   189 H104     -2.5139   -7.7094   -4.0916   H         1 RES1   0.0000
   190 H105     -1.0618   -8.6950   -3.9277   H         1 RES1   0.0000
   191 H106     -3.1152   -9.9358   -3.4503   H         1 RES1   0.0000
   192 H107     -1.9515   -9.9723   -2.1396   H         1 RES1   0.0000
   193 H108     -4.1216   -9.8123   -1.2339   H         1 RES1   0.0000
   194 H109     -3.2881   -8.3077   -0.8774   H         1 RES1   0.0000
   195 H110     -5.1804   -8.5546   -3.2468   H         1 RES1   0.0000
   196 H111     -5.7792   -8.2673   -1.6158   H         1 RES1   0.0000
   197 H112     -4.0711   -6.2642   -1.5966   H         1 RES1   0.0000
   198 H113     -4.1343   -6.4257   -3.3613   H         1 RES1   0.0000
   199 H114     -6.5041   -5.9607   -1.5049   H         1 RES1   0.0000
   200 H115     -5.7056   -4.7376   -2.4928   H         1 RES1   0.0000
   201 H116     -6.3933   -5.9059   -4.5514   H         1 RES1   0.0000
   202 H117     -7.0611   -7.2292   -3.6006   H         1 RES1   0.0000
   203 H118     -8.8976   -5.8747   -4.2975   H         1 RES1   0.0000
   204 H119     -8.6970   -5.6614   -2.5634   H         1 RES1   0.0000
   205 H120     -7.7280   -3.7109   -4.7107   H         1 RES1   0.0000
   206 H121     -9.1571   -3.5094   -3.6984   H         1 RES1   0.0000
   207 H122     -7.5575   -3.4695   -2.9666   H         1 RES1   0.0000
   208 H123     -1.7055   -1.9962   -2.6242   H         1 RES1   0.0000
   209 H124     -2.3941   -3.2642   -1.5544   H         1 RES1   0.0000
   210 H125     -2.6261   -2.8754    0.6098   H         1 RES1   0.0000
   211 H126     -4.5526   -0.5436    0.2122   H         1 RES1   0.0000
   212 H127     -4.7286   -2.0462   -0.7088   H         1 RES1   0.0000
   213 H128     -6.0532   -1.9600    1.4861   H         1 RES1   0.0000
   214 H129     -5.0600   -3.3807    1.2143   H         1 RES1   0.0000
   215 H130     -5.0131   -1.5592    3.4574   H         1 RES1   0.0000
   216 H131     -4.1282   -3.0667    3.2440   H         1 RES1   0.0000
   217 H132     -2.0018   -2.2191    4.2491   H         1 RES1   0.0000
   218 H133     -1.4690   -0.6022    3.7721   H         1 RES1   0.0000
   219 H134     -3.0651    0.4233    5.2741   H         1 RES1   0.0000
   220 H135     -4.0315   -1.0506    5.3683   H         1 RES1   0.0000
   221 H136     -2.8740   -0.8572    7.4113   H         1 RES1   0.0000
   222 H137     -2.1978   -2.2102    6.5436   H         1 RES1   0.0000
   223 H138     -0.1330   -1.3131    6.9350   H         1 RES1   0.0000
   224 H139     -0.5431   -0.0086    5.8293   H         1 RES1   0.0000
   225 H140     -1.5163    1.2687    7.7579   H         1 RES1   0.0000
   226 H141     -1.0804   -0.0530    8.8298   H         1 RES1   0.0000
   227 H142      0.9105    1.6169    7.2232   H         1 RES1   0.0000
   228 H143      0.5814    1.7646    8.9486   H         1 RES1   0.0000
   229 H144      1.3286    0.3036    8.3222   H         1 RES1   0.0000
   230 C75      -7.6303    2.2906    5.4806   C.3       1 RES1   0.0000
   231 C76      -7.6751    0.9261    4.8069   C.3       1 RES1   0.0000
   232 C77      -6.8073    0.8204    3.5515   C.3       1 RES1   0.0000
   233 C78      -7.2343    1.7774    2.4365   C.3       1 RES1   0.0000
   234 C79      -6.7067    1.3813    1.0479   C.3       1 RES1   0.0000
   235 C80      -5.4912    2.1641    0.5316   C.3       1 RES1   0.0000
   236 C81      -4.1915    2.0668    1.3574   C.3       1 RES1   0.0000
   237 C82      -3.8823    3.3863    2.0700   C.3       1 RES1   0.0000
   238 C83      -2.4567    3.5184    2.6125   C.3       1 RES1   0.0000
   239 C84      -2.1398    2.5103    3.7154   C.3       1 RES1   0.0000
   240 C85      -0.9137    2.8221    4.5863   C.3       1 RES1   0.0000
   241 C86       0.4747    2.4941    4.0178   C.3       1 RES1   0.0000
   242 N5        0.9388    3.3757    2.9446   N.am      1 RES1   0.0000
   243 C87       1.7831    4.5090    3.3079   C.3       1 RES1   0.0000
   244 C88       1.1214    5.5581    4.2071   C.3       1 RES1   0.0000
   245 C89      -0.1550    6.1640    3.6124   C.3       1 RES1   0.0000
   246 C90      -0.2585    7.6729    3.8189   C.3       1 RES1   0.0000
   247 C91      -1.6154    8.2207    3.3744   C.3       1 RES1   0.0000
   248 C92      -2.0098    7.9601    1.9162   C.3       1 RES1   0.0000
   249 C93      -1.1053    8.6108    0.8588   C.3       1 RES1   0.0000
   250 C94       0.0353    7.7084    0.3865   C.3       1 RES1   0.0000
   251 C95       0.7619    8.2338   -0.8528   C.3       1 RES1   0.0000
   252 C96       1.5706    9.4972   -0.5713   C.3       1 RES1   0.0000
   253 C97       2.3580    9.9860   -1.7865   C.3       1 RES1   0.0000
   254 C98       3.4998    9.0575   -2.1849   C.3       1 RES1   0.0000
   255 C99       0.7674    2.9439    1.7031   C.2       1 RES1   0.0000
   256 O7        0.2506    1.8367    1.4577   O.2       1 RES1   0.0000
   257 C100      1.1727    3.7931    0.4909   C.3       1 RES1   0.0000
   258 O8        0.6598    3.1677   -0.6737   O.3       1 RES1   0.0000
   259 C101     -0.5785    3.7118   -1.1278   C.3       1 RES1   0.0000
   260 C102     -0.3932    4.8312   -2.1538   C.3       1 RES1   0.0000
   261 C103     -1.7840    5.3720   -2.4590   C.3       1 RES1   0.0000
   262 C104     -2.6296    4.2824   -3.1054   C.3       1 RES1   0.0000
   263 N6       -2.4169    2.9507   -2.5503   N.am      1 RES1   0.0000
   264 C105     -3.2856    1.9232   -3.1143   C.3       1 RES1   0.0000
   265 C106     -2.7892    1.4546   -4.4815   C.3       1 RES1   0.0000
   266 C107     -3.8135    0.5994   -5.2241   C.3       1 RES1   0.0000
   267 C108     -3.9985   -0.7991   -4.6310   C.3       1 RES1   0.0000
   268 C109     -4.4710   -1.7882   -5.6981   C.3       1 RES1   0.0000
   269 C110     -4.4336   -3.2349   -5.2211   C.3       1 RES1   0.0000
   270 C111     -1.4434    2.5975   -1.7248   C.2       1 RES1   0.0000
   271 O9       -1.2532    1.4056   -1.3890   O.2       1 RES1   0.0000
   272 H145     -8.2258    2.2680    6.3891   H         1 RES1   0.0000
   273 H146     -8.0367    3.0625    4.8330   H         1 RES1   0.0000
   274 H147     -6.6112    2.5614    5.7506   H         1 RES1   0.0000
   275 H148     -8.7084    0.6940    4.5468   H         1 RES1   0.0000
   276 H149     -7.3433    0.1688    5.5209   H         1 RES1   0.0000
   277 H150     -6.8917   -0.2069    3.1811   H         1 RES1   0.0000
   278 H151     -5.7621    1.0003    3.8180   H         1 RES1   0.0000
   279 H152     -6.9137    2.7903    2.6739   H         1 RES1   0.0000
   280 H153     -8.3244    1.7810    2.4036   H         1 RES1   0.0000
   281 H154     -7.5014    1.5438    0.3165   H         1 RES1   0.0000
   282 H155     -6.4919    0.3106    1.0392   H         1 RES1   0.0000
   283 H156     -5.7835    3.2128    0.4607   H         1 RES1   0.0000
   284 H157     -5.2983    1.8237   -0.4908   H         1 RES1   0.0000
   285 H158     -3.3454    1.8086    0.7028   H         1 RES1   0.0000
   286 H159     -4.2844    1.2705    2.0962   H         1 RES1   0.0000
   287 H160     -4.5922    3.5157    2.8895   H         1 RES1   0.0000
   288 H161     -4.0495    4.2095    1.3683   H         1 RES1   0.0000
   289 H162     -2.3632    4.5310    3.0035   H         1 RES1   0.0000
   290 H163     -1.7473    3.3969    1.7903   H         1 RES1   0.0000
   291 H164     -2.0321    1.5277    3.2554   H         1 RES1   0.0000
   292 H165     -3.0032    2.4959    4.3870   H         1 RES1   0.0000
   293 H166     -1.0034    2.2288    5.4988   H         1 RES1   0.0000
   294 H167     -0.9389    3.8675    4.8853   H         1 RES1   0.0000
   295 H168      0.4756    1.4709    3.6200   H         1 RES1   0.0000
   296 H169      1.2095    2.5596    4.8245   H         1 RES1   0.0000
   297 H170      2.1291    4.9941    2.3962   H         1 RES1   0.0000
   298 H171      2.6641    4.1117    3.8287   H         1 RES1   0.0000
   299 H172      1.8612    6.3479    4.3461   H         1 RES1   0.0000
   300 H173      0.9243    5.1277    5.1876   H         1 RES1   0.0000
   301 H174     -1.0356    5.7193    4.0753   H         1 RES1   0.0000
   302 H175     -0.1981    5.9385    2.5466   H         1 RES1   0.0000
   303 H176      0.5448    8.1878    3.2926   H         1 RES1   0.0000
   304 H177     -0.1437    7.8903    4.8814   H         1 RES1   0.0000
   305 H178     -1.6272    9.2975    3.5462   H         1 RES1   0.0000
   306 H179     -2.3908    7.7853    4.0109   H         1 RES1   0.0000
   307 H180     -3.0192    8.3590    1.7946   H         1 RES1   0.0000
   308 H181     -2.0749    6.8828    1.7305   H         1 RES1   0.0000
   309 H182     -0.6986    9.5394    1.2553   H         1 RES1   0.0000
   310 H183     -1.7132    8.8664   -0.0122   H         1 RES1   0.0000
   311 H184     -0.3878    6.7224    0.1524   H         1 RES1   0.0000
   312 H185      0.7665    7.5821    1.1869   H         1 RES1   0.0000
   313 H186      0.0375    8.4374   -1.6444   H         1 RES1   0.0000
   314 H187      1.4418    7.4559   -1.2141   H         1 RES1   0.0000
   315 H188      2.2644    9.3051    0.2503   H         1 RES1   0.0000
   316 H189      0.8936   10.2903   -0.2562   H         1 RES1   0.0000
   317 H190      2.7751   10.9659   -1.5536   H         1 RES1   0.0000
   318 H191      1.6803   10.1111   -2.6324   H         1 RES1   0.0000
   319 H192      4.1674    8.8911   -1.3416   H         1 RES1   0.0000
   320 H193      4.0778    9.5011   -2.9912   H         1 RES1   0.0000
   321 H194      3.1290    8.0941   -2.5312   H         1 RES1   0.0000
   322 H195      2.2625    3.8018    0.3950   H         1 RES1   0.0000
   323 H196      0.8077    4.8216    0.5786   H         1 RES1   0.0000
   324 H197     -1.1404    4.1016   -0.2629   H         1 RES1   0.0000
   325 H198      0.0798    4.4386   -3.0569   H         1 RES1   0.0000
   326 H199      0.2468    5.6207   -1.7611   H         1 RES1   0.0000
   327 H200     -1.7282    6.2240   -3.1363   H         1 RES1   0.0000
   328 H201     -2.2567    5.7146   -1.5350   H         1 RES1   0.0000
   329 H202     -2.4106    4.2280   -4.1775   H         1 RES1   0.0000
   330 H203     -3.6906    4.5243   -3.0012   H         1 RES1   0.0000
   331 H204     -4.2855    2.3503   -3.2084   H         1 RES1   0.0000
   332 H205     -3.3163    1.0884   -2.4110   H         1 RES1   0.0000
   333 H206     -1.8636    0.8919   -4.3496   H         1 RES1   0.0000
   334 H207     -2.5645    2.3235   -5.1009   H         1 RES1   0.0000
   335 H208     -3.4691    0.4971   -6.2545   H         1 RES1   0.0000
   336 H209     -4.7714    1.1195   -5.2585   H         1 RES1   0.0000
   337 H210     -4.7155   -0.7733   -3.8068   H         1 RES1   0.0000
   338 H211     -3.0398   -1.1462   -4.2334   H         1 RES1   0.0000
   339 H212     -3.8226   -1.6964   -6.5730   H         1 RES1   0.0000
   340 H213     -5.4850   -1.5321   -6.0086   H         1 RES1   0.0000
   341 H214     -3.4219   -3.5149   -4.9270   H         1 RES1   0.0000
   342 H215     -4.7445   -3.8970   -6.0251   H         1 RES1   0.0000
   343 H216     -5.0979   -3.3901   -4.3744   H         1 RES1   0.0000
@<TRIPOS>BOND
     1     1    28    1
     2     1    30    1
     3     1    43    1
     4     1   142    1
     5     1   144    1
     6     1   157    1
     7     1   256    1
     8     1   258    1
     9     1   271    1
    10     2     3    1
    11     2    44    1
    12     2    45    1
    13     2    46    1
    14     3     4    1
    15     3    47    1
    16     3    48    1
    17     4     5    1
    18     4    49    1
    19     4    50    1
    20     5     6    1
    21     5    51    1
    22     5    52    1
    23     6     7    1
    24     6    53    1
    25     6    54    1
    26     7     8    1
    27     7    55    1
    28     7    56    1
    29     8     9    1
    30     8    57    1
    31     8    58    1
    32     9    10    1
    33     9    59    1
    34     9    60    1
    35    10    11    1
    36    10    61    1
    37    10    62    1
    38    11    12    1
    39    11    63    1
    40    11    64    1
    41    12    13    1
    42    12    65    1
    43    12    66    1
    44    13    14    1
    45    13    67    1
    46    13    68    1
    47    14    15    1
    48    14    27    1
    49    15    16    1
    50    15    69    1
    51    15    70    1
    52    16    17    1
    53    16    71    1
    54    16    72    1
    55    17    18    1
    56    17    73    1
    57    17    74    1
    58    18    19    1
    59    18    75    1
    60    18    76    1
    61    19    20    1
    62    19    77    1
    63    19    78    1
    64    20    21    1
    65    20    79    1
    66    20    80    1
    67    21    22    1
    68    21    81    1
    69    21    82    1
    70    22    23    1
    71    22    83    1
    72    22    84    1
    73    23    24    1
    74    23    85    1
    75    23    86    1
    76    24    25    1
    77    24    87    1
    78    24    88    1
    79    25    26    1
    80    25    89    1
    81    25    90    1
    82    26    91    1
    83    26    92    1
    84    26    93    1
    85    27    28    2
    86    27    29    1
    87    29    30    1
    88    29    94    1
    89    29    95    1
    90    30    31    1
    91    31    32    1
    92    31    42    1
    93    31    96    1
    94    32    33    1
    95    32    97    1
    96    32    98    1
    97    33    34    1
    98    33    99    1
    99    33   100    1
   100    34    35    1
   101    34   101    1
   102    34   102    1
   103    35    36    1
   104    35    42    1
   105    36    37    1
   106    36   103    1
   107    36   104    1
   108    37    38    1
   109    37   105    1
   110    37   106    1
   111    38    39    1
   112    38   107    1
   113    38   108    1
   114    39    40    1
   115    39   109    1
   116    39   110    1
   117    40    41    1
   118    40   111    1
   119    40   112    1
   120    41   113    1
   121    41   114    1
   122    41   115    1
   123    42    43    2
   124   116   117    1
   125   116   158    1
   126   116   159    1
   127   116   160    1
   128   117   118    1
   129   117   161    1
   130   117   162    1
   131   118   119    1
   132   118   163    1
   133   118   164    1
   134   119   120    1
   135   119   165    1
   136   119   166    1
   137   120   121    1
   138   120   167    1
   139   120   168    1
   140   121   122    1
   141   121   169    1
   142   121   170    1
   143   122   123    1
   144   122   171    1
   145   122   172    1
   146   123   124    1
   147   123   173    1
   148   123   174    1
   149   124   125    1
   150   124   175    1
   151   124   176    1
   152   125   126    1
   153   125   177    1
   154   125   178    1
   155   126   127    1
   156   126   179    1
   157   126   180    1
   158   127   128    1
   159   127   181    1
   160   127   182    1
   161   128   129    1
   162   128   141    1
   163   129   130    1
   164   129   183    1
   165   129   184    1
   166   130   131    1
   167   130   185    1
   168   130   186    1
   169   131   132    1
   170   131   187    1
   171   131   188    1
   172   132   133    1
   173   132   189    1
   174   132   190    1
   175   133   134    1
   176   133   191    1
   177   133   192    1
   178   134   135    1
   179   134   193    1
   180   134   194    1
   181   135   136    1
   182   135   195    1
   183   135   196    1
   184   136   137    1
   185   136   197    1
   186   136   198    1
   187   137   138    1
   188   137   199    1
   189   137   200    1
   190   138   139    1
   191   138   201    1
   192   138   202    1
   193   139   140    1
   194   139   203    1
   195   139   204    1
   196   140   205    1
   197   140   206    1
   198   140   207    1
   199   141   142    2
   200   141   143    1
   201   143   144    1
   202   143   208    1
   203   143   209    1
   204   144   145    1
   205   145   146    1
   206   145   156    1
   207   145   210    1
   208   146   147    1
   209   146   211    1
   210   146   212    1
   211   147   148    1
   212   147   213    1
   213   147   214    1
   214   148   149    1
   215   148   215    1
   216   148   216    1
   217   149   150    1
   218   149   156    1
   219   150   151    1
   220   150   217    1
   221   150   218    1
   222   151   152    1
   223   151   219    1
   224   151   220    1
   225   152   153    1
   226   152   221    1
   227   152   222    1
   228   153   154    1
   229   153   223    1
   230   153   224    1
   231   154   155    1
   232   154   225    1
   233   154   226    1
   234   155   227    1
   235   155   228    1
   236   155   229    1
   237   156   157    2
   238   230   231    1
   239   230   272    1
   240   230   273    1
   241   230   274    1
   242   231   232    1
   243   231   275    1
   244   231   276    1
   245   232   233    1
   246   232   277    1
   247   232   278    1
   248   233   234    1
   249   233   279    1
   250   233   280    1
   251   234   235    1
   252   234   281    1
   253   234   282    1
   254   235   236    1
   255   235   283    1
   256   235   284    1
   257   236   237    1
   258   236   285    1
   259   236   286    1
   260   237   238    1
   261   237   287    1
   262   237   288    1
   263   238   239    1
   264   238   289    1
   265   238   290    1
   266   239   240    1
   267   239   291    1
   268   239   292    1
   269   240   241    1
   270   240   293    1
   271   240   294    1
   272   241   242    1
   273   241   295    1
   274   241   296    1
   275   242   243    1
   276   242   255    1
   277   243   244    1
   278   243   297    1
   279   243   298    1
   280   244   245    1
   281   244   299    1
   282   244   300    1
   283   245   246    1
   284   245   301    1
   285   245   302    1
   286   246   247    1
   287   246   303    1
   288   246   304    1
   289   247   248    1
   290   247   305    1
   291   247   306    1
   292   248   249    1
   293   248   307    1
   294   248   308    1
   295   249   250    1
   296   249   309    1
   297   249   310    1
   298   250   251    1
   299   250   311    1
   300   250   312    1
   301   251   252    1
   302   251   313    1
   303   251   314    1
   304   252   253    1
   305   252   315    1
   306   252   316    1
   307   253   254    1
   308   253   317    1
   309   253   318    1
   310   254   319    1
   311   254   320    1
   312   254   321    1
   313   255   256    2
   314   255   257    1
   315   257   258    1
   316   257   322    1
   317   257   323    1
   318   258   259    1
   319   259   260    1
   320   259   270    1
   321   259   324    1
   322   260   261    1
   323   260   325    1
   324   260   326    1
   325   261   262    1
   326   261   327    1
   327   261   328    1
   328   262   263    1
   329   262   329    1
   330   262   330    1
   331   263   264    1
   332   263   270    1
   333   264   265    1
   334   264   331    1
   335   264   332    1
   336   265   266    1
   337   265   333    1
   338   265   334    1
   339   266   267    1
   340   266   335    1
   341   266   336    1
   342   267   268    1
   343   267   337    1
   344   267   338    1
   345   268   269    1
   346   268   339    1
   347   268   340    1
   348   269   341    1
   349   269   342    1
   350   269   343    1
   351   270   271    2
@<TRIPOS>SUBSTRUCTURE
     1 RES1      343 GROUP             0 ****  ****    0  
