@<TRIPOS>MOLECULE
cn9_YICLED_0_nunpairedes_0_charge_3 Charge: 3 Unpaired_Electrons: 2 XTB_Unpaired_Electrons: 0 XTB_Charge: 3
   284   291     1     0     0
SMALL
NoCharges
****
Generated from Architector

@<TRIPOS>ATOM
     1 Pr1      -0.0466    0.0767    0.1200   Pr        1 RES1   0.0000
     2 C1       -7.1403    2.5927   -3.5447   C.3       1 RES1   0.0000
     3 C2       -5.6866    2.6234   -3.0809   C.3       1 RES1   0.0000
     4 C3       -4.8098    3.2230   -4.1792   C.3       1 RES1   0.0000
     5 C4       -5.2003    1.2405   -2.6128   C.3       1 RES1   0.0000
     6 C5       -5.2274    0.1464   -3.6795   C.3       1 RES1   0.0000
     7 C6       -4.2799   -1.0128   -3.3702   C.3       1 RES1   0.0000
     8 C7       -4.8005   -2.0645   -2.3932   C.3       1 RES1   0.0000
     9 C8       -3.6505   -2.9403   -1.8673   C.3       1 RES1   0.0000
    10 P1       -2.8005   -2.2114   -0.3893   P.3       1 RES1   0.0000
    11 O1       -2.1617   -0.8743   -0.6212   O.2       1 RES1   0.0000
    12 C9       -1.6121   -3.5732    0.0828   C.3       1 RES1   0.0000
    13 C10      -0.5355   -3.2897    1.1133   C.2       1 RES1   0.0000
    14 O2       -0.1107   -2.1395    1.2957   O.2       1 RES1   0.0000
    15 N1       -0.0733   -4.3378    1.8167   N.am      1 RES1   0.0000
    16 C11       0.9874   -4.1454    2.8128   C.3       1 RES1   0.0000
    17 C12       0.5824   -3.6251    4.2074   C.3       1 RES1   0.0000
    18 C13       1.8467   -3.4309    5.0471   C.3       1 RES1   0.0000
    19 C14      -0.3368   -4.5715    4.9760   C.3       1 RES1   0.0000
    20 C15      -0.1814   -5.7167    1.3480   C.3       1 RES1   0.0000
    21 C16      -0.8977   -6.6851    2.3002   C.3       1 RES1   0.0000
    22 C17      -2.3997   -6.4161    2.3468   C.3       1 RES1   0.0000
    23 C18      -0.6275   -8.1196    1.8474   C.3       1 RES1   0.0000
    24 C19      -4.2683   -2.2221    0.6833   C.ar      1 RES1   0.0000
    25 C20      -5.1052   -1.1138    0.6346   C.ar      1 RES1   0.0000
    26 C21      -6.3845   -1.1757    1.1594   C.ar      1 RES1   0.0000
    27 C22      -6.8320   -2.3492    1.7427   C.ar      1 RES1   0.0000
    28 C23      -6.0027   -3.4590    1.7949   C.ar      1 RES1   0.0000
    29 C24      -4.7363   -3.4050    1.2472   C.ar      1 RES1   0.0000
    30 H1       -7.4814    3.5973   -3.7802   H         1 RES1   0.0000
    31 H2       -7.7892    2.1905   -2.7719   H         1 RES1   0.0000
    32 H3       -7.2487    1.9849   -4.4381   H         1 RES1   0.0000
    33 H4       -5.6190    3.2908   -2.2100   H         1 RES1   0.0000
    34 H5       -4.9287    2.6871   -5.1169   H         1 RES1   0.0000
    35 H6       -3.7591    3.2083   -3.8977   H         1 RES1   0.0000
    36 H7       -5.1065    4.2542   -4.3522   H         1 RES1   0.0000
    37 H8       -5.8248    0.9384   -1.7715   H         1 RES1   0.0000
    38 H9       -4.1743    1.3503   -2.2454   H         1 RES1   0.0000
    39 H10      -4.9149    0.5825   -4.6259   H         1 RES1   0.0000
    40 H11      -6.2396   -0.2293   -3.8125   H         1 RES1   0.0000
    41 H12      -3.3496   -0.6012   -2.9704   H         1 RES1   0.0000
    42 H13      -4.0631   -1.5458   -4.2951   H         1 RES1   0.0000
    43 H14      -5.5274   -2.6996   -2.9052   H         1 RES1   0.0000
    44 H15      -5.3284   -1.5987   -1.5623   H         1 RES1   0.0000
    45 H16      -2.9408   -3.1174   -2.6765   H         1 RES1   0.0000
    46 H17      -4.0466   -3.9053   -1.5353   H         1 RES1   0.0000
    47 H18      -1.0848   -3.8244   -0.8413   H         1 RES1   0.0000
    48 H19      -2.2206   -4.4223    0.3740   H         1 RES1   0.0000
    49 H20       1.7214   -3.4567    2.3788   H         1 RES1   0.0000
    50 H21       1.4618   -5.1167    2.9578   H         1 RES1   0.0000
    51 H22       0.0905   -2.6562    4.0954   H         1 RES1   0.0000
    52 H23       2.4194   -4.3536    5.1015   H         1 RES1   0.0000
    53 H24       1.5722   -3.1456    6.0582   H         1 RES1   0.0000
    54 H25       2.4800   -2.6465    4.6466   H         1 RES1   0.0000
    55 H26       0.1772   -5.5064    5.1865   H         1 RES1   0.0000
    56 H27      -1.2601   -4.7859    4.4504   H         1 RES1   0.0000
    57 H28      -0.5962   -4.1201    5.9301   H         1 RES1   0.0000
    58 H29       0.8388   -6.0841    1.1930   H         1 RES1   0.0000
    59 H30      -0.6765   -5.7564    0.3829   H         1 RES1   0.0000
    60 H31      -0.4833   -6.5636    3.3017   H         1 RES1   0.0000
    61 H32      -2.8522   -6.6093    1.3756   H         1 RES1   0.0000
    62 H33      -2.6054   -5.3891    2.6420   H         1 RES1   0.0000
    63 H34      -2.8820   -7.0702    3.0680   H         1 RES1   0.0000
    64 H35      -1.0151   -8.2950    0.8466   H         1 RES1   0.0000
    65 H36      -1.1065   -8.8226    2.5236   H         1 RES1   0.0000
    66 H37       0.4399   -8.3260    1.8408   H         1 RES1   0.0000
    67 H38      -4.7535   -0.2136    0.1552   H         1 RES1   0.0000
    68 H39      -7.0371   -0.3183    1.0861   H         1 RES1   0.0000
    69 H40      -7.8300   -2.4074    2.1451   H         1 RES1   0.0000
    70 H41      -6.3554   -4.3750    2.2422   H         1 RES1   0.0000
    71 H42      -4.1133   -4.2838    1.2759   H         1 RES1   0.0000
    72 C25       3.3854    6.5369   -3.8969   C.3       1 RES1   0.0000
    73 C26       1.8823    6.7013   -4.1041   C.3       1 RES1   0.0000
    74 C27       1.6388    7.3488   -5.4671   C.3       1 RES1   0.0000
    75 C28       1.2424    7.5641   -3.0119   C.3       1 RES1   0.0000
    76 C29       1.4786    7.1523   -1.5570   C.3       1 RES1   0.0000
    77 C30       0.7496    5.8858   -1.0851   C.3       1 RES1   0.0000
    78 C31       1.5886    4.5995   -1.0675   C.3       1 RES1   0.0000
    79 C32       1.2799    3.6267   -2.2012   C.3       1 RES1   0.0000
    80 P2        2.2515    2.1149   -1.8797   P.3       1 RES1   0.0000
    81 O3        1.9005    1.4519   -0.5918   O.2       1 RES1   0.0000
    82 C33       2.0578    0.9395   -3.2969   C.3       1 RES1   0.0000
    83 C34       0.6031    0.6655   -3.5399   C.2       1 RES1   0.0000
    84 O4       -0.1307    0.4874   -2.5419   O.2       1 RES1   0.0000
    85 N2        0.1452    0.6335   -4.7901   N.am      1 RES1   0.0000
    86 C35      -1.2968    0.5926   -5.0159   C.3       1 RES1   0.0000
    87 C36      -1.8572   -0.6901   -5.6562   C.3       1 RES1   0.0000
    88 C37      -1.6336   -0.8256   -7.1594   C.3       1 RES1   0.0000
    89 C38      -1.3973   -1.9368   -4.9019   C.3       1 RES1   0.0000
    90 C39       0.9544    0.9755   -5.9568   C.3       1 RES1   0.0000
    91 C40       2.1886    0.1193   -6.3167   C.3       1 RES1   0.0000
    92 C41       2.9854    0.9278   -7.3438   C.3       1 RES1   0.0000
    93 C42       1.8472   -1.2545   -6.8856   C.3       1 RES1   0.0000
    94 C43       4.0148    2.4669   -2.1236   C.ar      1 RES1   0.0000
    95 C44       4.9803    1.8258   -1.3613   C.ar      1 RES1   0.0000
    96 C45       6.3251    2.0482   -1.6028   C.ar      1 RES1   0.0000
    97 C46       6.7089    2.8874   -2.6360   C.ar      1 RES1   0.0000
    98 C47       5.7490    3.4828   -3.4390   C.ar      1 RES1   0.0000
    99 C48       4.4066    3.2730   -3.1868   C.ar      1 RES1   0.0000
   100 H43       3.8244    5.9780   -4.7205   H         1 RES1   0.0000
   101 H44       3.6202    6.0195   -2.9708   H         1 RES1   0.0000
   102 H45       3.8576    7.5143   -3.8699   H         1 RES1   0.0000
   103 H46       1.3977    5.7170   -4.1089   H         1 RES1   0.0000
   104 H47       2.1277    8.3182   -5.5109   H         1 RES1   0.0000
   105 H48       0.5769    7.4949   -5.6457   H         1 RES1   0.0000
   106 H49       2.0428    6.7313   -6.2666   H         1 RES1   0.0000
   107 H50       0.1652    7.6100   -3.1888   H         1 RES1   0.0000
   108 H51       1.6312    8.5760   -3.1328   H         1 RES1   0.0000
   109 H52       1.1234    7.9838   -0.9482   H         1 RES1   0.0000
   110 H53       2.5453    7.0583   -1.3609   H         1 RES1   0.0000
   111 H54      -0.1370    5.7310   -1.6975   H         1 RES1   0.0000
   112 H55       0.3925    6.0691   -0.0701   H         1 RES1   0.0000
   113 H56       1.3969    4.0527   -0.1421   H         1 RES1   0.0000
   114 H57       2.6510    4.8513   -1.0873   H         1 RES1   0.0000
   115 H58       1.5394    4.0540   -3.1653   H         1 RES1   0.0000
   116 H59       0.2208    3.3606   -2.1882   H         1 RES1   0.0000
   117 H60       2.5823    0.0301   -2.9856   H         1 RES1   0.0000
   118 H61       2.5892    1.3604   -4.1393   H         1 RES1   0.0000
   119 H62      -1.5756    1.4527   -5.6320   H         1 RES1   0.0000
   120 H63      -1.7664    0.7170   -4.0380   H         1 RES1   0.0000
   121 H64      -2.9367   -0.5957   -5.5279   H         1 RES1   0.0000
   122 H65      -0.6000   -1.0132   -7.4127   H         1 RES1   0.0000
   123 H66      -1.9688    0.0690   -7.6784   H         1 RES1   0.0000
   124 H67      -2.2159   -1.6687   -7.5224   H         1 RES1   0.0000
   125 H68      -0.3345   -2.1098   -5.0428   H         1 RES1   0.0000
   126 H69      -1.9323   -2.8116   -5.2635   H         1 RES1   0.0000
   127 H70      -1.5963   -1.8303   -3.8370   H         1 RES1   0.0000
   128 H71       1.2884    2.0134   -5.8461   H         1 RES1   0.0000
   129 H72       0.2831    0.9348   -6.8121   H         1 RES1   0.0000
   130 H73       2.8249   -0.0517   -5.4471   H         1 RES1   0.0000
   131 H74       2.3688    1.1217   -8.2170   H         1 RES1   0.0000
   132 H75       3.8707    0.3866   -7.6658   H         1 RES1   0.0000
   133 H76       3.3002    1.8858   -6.9333   H         1 RES1   0.0000
   134 H77       1.3484   -1.1681   -7.8460   H         1 RES1   0.0000
   135 H78       1.2181   -1.8226   -6.2059   H         1 RES1   0.0000
   136 H79       2.7590   -1.8225   -7.0481   H         1 RES1   0.0000
   137 H80       4.6690    1.1363   -0.5893   H         1 RES1   0.0000
   138 H81       7.0725    1.5646   -0.9919   H         1 RES1   0.0000
   139 H82       7.7537    3.0690   -2.8316   H         1 RES1   0.0000
   140 H83       6.0515    4.1065   -4.2653   H         1 RES1   0.0000
   141 H84       3.6639    3.7308   -3.8218   H         1 RES1   0.0000
   142 C49      -2.3241    7.6060    4.2657   C.3       1 RES1   0.0000
   143 C50      -1.9358    6.5518    5.2989   C.3       1 RES1   0.0000
   144 C51      -2.7514    6.7620    6.5733   C.3       1 RES1   0.0000
   145 C52      -0.4410    6.6100    5.6335   C.3       1 RES1   0.0000
   146 C53       0.4975    6.1677    4.5086   C.3       1 RES1   0.0000
   147 C54       0.2012    4.7506    4.0050   C.3       1 RES1   0.0000
   148 C55      -0.4748    4.7124    2.6289   C.3       1 RES1   0.0000
   149 C56      -1.1598    3.3582    2.4653   C.3       1 RES1   0.0000
   150 P3       -1.8487    2.9125    0.8204   P.3       1 RES1   0.0000
   151 O5       -0.8721    2.2542   -0.1022   O.2       1 RES1   0.0000
   152 C57      -3.2257    1.7123    1.1643   C.3       1 RES1   0.0000
   153 C58      -2.7132    0.8030    2.2481   C.2       1 RES1   0.0000
   154 O6       -1.6540    0.1985    2.0014   O.2       1 RES1   0.0000
   155 N3       -3.3289    0.7093    3.4361   N.am      1 RES1   0.0000
   156 C59      -2.6652   -0.0644    4.4922   C.3       1 RES1   0.0000
   157 C60      -2.9133   -1.5824    4.5787   C.3       1 RES1   0.0000
   158 C61      -4.3343   -2.0221    4.9068   C.3       1 RES1   0.0000
   159 C62      -2.4374   -2.2785    3.3170   C.3       1 RES1   0.0000
   160 C63      -4.3300    1.6876    3.8556   C.3       1 RES1   0.0000
   161 C64      -5.7531    1.5809    3.2773   C.3       1 RES1   0.0000
   162 C65      -6.4063    2.9591    3.4100   C.3       1 RES1   0.0000
   163 C66      -6.5785    0.5252    4.0033   C.3       1 RES1   0.0000
   164 C67      -2.7071    4.3090    0.0756   C.ar      1 RES1   0.0000
   165 C68      -2.5461    4.5687   -1.2768   C.ar      1 RES1   0.0000
   166 C69      -3.2349    5.6129   -1.8679   C.ar      1 RES1   0.0000
   167 C70      -4.1059    6.3757   -1.1074   C.ar      1 RES1   0.0000
   168 C71      -4.2782    6.1085    0.2429   C.ar      1 RES1   0.0000
   169 C72      -3.5743    5.0809    0.8406   C.ar      1 RES1   0.0000
   170 H85      -3.3835    7.5389    4.0305   H         1 RES1   0.0000
   171 H86      -1.7627    7.4966    3.3413   H         1 RES1   0.0000
   172 H87      -2.1298    8.5985    4.6605   H         1 RES1   0.0000
   173 H88      -2.1734    5.5575    4.9001   H         1 RES1   0.0000
   174 H89      -2.5404    7.7405    6.9951   H         1 RES1   0.0000
   175 H90      -2.5042    6.0115    7.3202   H         1 RES1   0.0000
   176 H91      -3.8173    6.7062    6.3658   H         1 RES1   0.0000
   177 H92      -0.2546    5.9819    6.5084   H         1 RES1   0.0000
   178 H93      -0.1924    7.6351    5.9088   H         1 RES1   0.0000
   179 H94       1.5171    6.2119    4.8921   H         1 RES1   0.0000
   180 H95       0.4372    6.8659    3.6756   H         1 RES1   0.0000
   181 H96      -0.4360    4.2474    4.7329   H         1 RES1   0.0000
   182 H97       1.1196    4.1690    3.9486   H         1 RES1   0.0000
   183 H98       0.2757    4.8760    1.8537   H         1 RES1   0.0000
   184 H99      -1.2104    5.5119    2.5492   H         1 RES1   0.0000
   185 H100     -1.9695    3.3095    3.1943   H         1 RES1   0.0000
   186 H101     -0.4422    2.5651    2.6895   H         1 RES1   0.0000
   187 H102     -3.2736    1.1392    0.2301   H         1 RES1   0.0000
   188 H103     -4.1744    2.2052    1.3294   H         1 RES1   0.0000
   189 H104     -2.9249    0.3814    5.4531   H         1 RES1   0.0000
   190 H105     -1.5886    0.0502    4.3334   H         1 RES1   0.0000
   191 H106     -2.2713   -1.9088    5.4046   H         1 RES1   0.0000
   192 H107     -4.9808   -1.9266    4.0392   H         1 RES1   0.0000
   193 H108     -4.7502   -1.4651    5.7407   H         1 RES1   0.0000
   194 H109     -4.3204   -3.0735    5.1826   H         1 RES1   0.0000
   195 H110     -3.0355   -1.9668    2.4687   H         1 RES1   0.0000
   196 H111     -2.5199   -3.3562    3.4273   H         1 RES1   0.0000
   197 H112     -1.4110   -2.0086    3.1064   H         1 RES1   0.0000
   198 H113     -3.9554    2.6933    3.6326   H         1 RES1   0.0000
   199 H114     -4.4238    1.6165    4.9387   H         1 RES1   0.0000
   200 H115     -5.7069    1.3049    2.2210   H         1 RES1   0.0000
   201 H116     -6.4403    3.2521    4.4564   H         1 RES1   0.0000
   202 H117     -7.4241    2.9507    3.0286   H         1 RES1   0.0000
   203 H118     -5.8439    3.7144    2.8624   H         1 RES1   0.0000
   204 H119     -6.5757    0.6991    5.0757   H         1 RES1   0.0000
   205 H120     -6.1824   -0.4637    3.8090   H         1 RES1   0.0000
   206 H121     -7.6084    0.5431    3.6599   H         1 RES1   0.0000
   207 H122     -1.8798    3.9393   -1.8494   H         1 RES1   0.0000
   208 H123     -3.0962    5.8322   -2.9161   H         1 RES1   0.0000
   209 H124     -4.6576    7.1832   -1.5623   H         1 RES1   0.0000
   210 H125     -4.9623    6.7078    0.8233   H         1 RES1   0.0000
   211 H126     -3.6949    4.8809    1.8963   H         1 RES1   0.0000
   212 C73       6.2052    3.5559    4.4422   C.3       1 RES1   0.0000
   213 C74       6.7431    3.4600    3.0170   C.3       1 RES1   0.0000
   214 C75       8.2526    3.2260    3.0683   C.3       1 RES1   0.0000
   215 C76       6.4664    4.7266    2.2004   C.3       1 RES1   0.0000
   216 C77       5.0421    5.2807    2.2104   C.3       1 RES1   0.0000
   217 C78       3.9874    4.4814    1.4365   C.3       1 RES1   0.0000
   218 C79       3.1730    3.4540    2.2387   C.3       1 RES1   0.0000
   219 C80       3.5994    2.0046    2.0181   C.3       1 RES1   0.0000
   220 P4        2.2910    0.8811    2.6179   P.3       1 RES1   0.0000
   221 O7        0.9568    1.0823    1.9804   O.2       1 RES1   0.0000
   222 C81       2.8159   -0.8903    2.4504   C.3       1 RES1   0.0000
   223 C82       3.0393   -1.3464    1.0334   C.2       1 RES1   0.0000
   224 O8        2.1828   -1.0771    0.1688   O.2       1 RES1   0.0000
   225 N4        4.1467   -2.0379    0.7207   N.am      1 RES1   0.0000
   226 C83       4.5015   -2.1459   -0.7010   C.3       1 RES1   0.0000
   227 C84       4.2966   -3.4764   -1.4594   C.3       1 RES1   0.0000
   228 C85       4.9829   -4.6998   -0.8596   C.3       1 RES1   0.0000
   229 C86       2.8220   -3.7852   -1.7284   C.3       1 RES1   0.0000
   230 C87       5.2390   -2.2930    1.6648   C.3       1 RES1   0.0000
   231 C88       5.0029   -3.2011    2.8910   C.3       1 RES1   0.0000
   232 C89       6.2433   -3.0926    3.7832   C.3       1 RES1   0.0000
   233 C90       4.7613   -4.6595    2.5205   C.3       1 RES1   0.0000
   234 C91       2.2375    1.0849    4.4161   C.ar      1 RES1   0.0000
   235 C92       1.0171    1.3854    5.0026   C.ar      1 RES1   0.0000
   236 C93       0.9288    1.6203    6.3625   C.ar      1 RES1   0.0000
   237 C94       2.0689    1.5422    7.1444   C.ar      1 RES1   0.0000
   238 C95       3.2889    1.2258    6.5665   C.ar      1 RES1   0.0000
   239 C96       3.3802    1.0013    5.2052   C.ar      1 RES1   0.0000
   240 H127      6.4829    2.6735    5.0139   H         1 RES1   0.0000
   241 H128      5.1229    3.6436    4.4708   H         1 RES1   0.0000
   242 H129      6.6325    4.4242    4.9350   H         1 RES1   0.0000
   243 H130      6.2852    2.6036    2.5074   H         1 RES1   0.0000
   244 H131      8.7377    4.0484    3.5869   H         1 RES1   0.0000
   245 H132      8.6703    3.1638    2.0667   H         1 RES1   0.0000
   246 H133      8.4862    2.3069    3.6010   H         1 RES1   0.0000
   247 H134      6.7621    4.5438    1.1639   H         1 RES1   0.0000
   248 H135      7.1206    5.5096    2.5860   H         1 RES1   0.0000
   249 H136      5.1014    6.2665    1.7473   H         1 RES1   0.0000
   250 H137      4.7020    5.4402    3.2314   H         1 RES1   0.0000
   251 H138      4.4596    3.9849    0.5872   H         1 RES1   0.0000
   252 H139      3.2821    5.2088    1.0360   H         1 RES1   0.0000
   253 H140      2.1287    3.5172    1.9261   H         1 RES1   0.0000
   254 H141      3.2150    3.7054    3.2999   H         1 RES1   0.0000
   255 H142      4.5217    1.7780    2.5458   H         1 RES1   0.0000
   256 H143      3.7298    1.8322    0.9520   H         1 RES1   0.0000
   257 H144      1.9353   -1.4104    2.8429   H         1 RES1   0.0000
   258 H145      3.6521   -1.0452    3.1196   H         1 RES1   0.0000
   259 H146      5.5543   -1.8645   -0.7948   H         1 RES1   0.0000
   260 H147      3.9066   -1.3889   -1.2213   H         1 RES1   0.0000
   261 H148      4.7733   -3.2975   -2.4307   H         1 RES1   0.0000
   262 H149      4.4400   -5.0751   -0.0018   H         1 RES1   0.0000
   263 H150      6.0096   -4.4914   -0.5728   H         1 RES1   0.0000
   264 H151      5.0001   -5.4901   -1.6062   H         1 RES1   0.0000
   265 H152      2.2187   -3.7133   -0.8252   H         1 RES1   0.0000
   266 H153      2.7310   -4.7925   -2.1267   H         1 RES1   0.0000
   267 H154      2.4238   -3.1090   -2.4827   H         1 RES1   0.0000
   268 H155      5.6227   -1.3317    2.0296   H         1 RES1   0.0000
   269 H156      6.0302   -2.7736    1.0917   H         1 RES1   0.0000
   270 H157      4.1425   -2.8725    3.4735   H         1 RES1   0.0000
   271 H158      7.1238   -3.4322    3.2450   H         1 RES1   0.0000
   272 H159      6.1318   -3.7097    4.6717   H         1 RES1   0.0000
   273 H160      6.4148   -2.0664    4.1026   H         1 RES1   0.0000
   274 H161      5.6047   -5.0628    1.9690   H         1 RES1   0.0000
   275 H162      3.8566   -4.7629    1.9268   H         1 RES1   0.0000
   276 H163      4.6440   -5.2566    3.4209   H         1 RES1   0.0000
   277 H164      0.1439    1.4355    4.3692   H         1 RES1   0.0000
   278 H165     -0.0210    1.8715    6.8097   H         1 RES1   0.0000
   279 H166      2.0157    1.7286    8.2052   H         1 RES1   0.0000
   280 H167      4.1702    1.1629    7.1849   H         1 RES1   0.0000
   281 H168      4.3400    0.7707    4.7649   H         1 RES1   0.0000
   282 O9        0.1743   -1.9477   -1.6352   O.3       1 RES1   0.0000
   283 H169      1.1205   -1.8046   -1.7911   H         1 RES1   0.0000
   284 H170     -0.2955   -1.5821   -2.4040   H         1 RES1   0.0000
@<TRIPOS>BOND
     1     1    11    1
     2     1    14    1
     3     1    81    1
     4     1    84    1
     5     1   151    1
     6     1   154    1
     7     1   221    1
     8     1   224    1
     9     1   282    1
    10     2     3    1
    11     2    30    1
    12     2    31    1
    13     2    32    1
    14     3     4    1
    15     3     5    1
    16     3    33    1
    17     4    34    1
    18     4    35    1
    19     4    36    1
    20     5     6    1
    21     5    37    1
    22     5    38    1
    23     6     7    1
    24     6    39    1
    25     6    40    1
    26     7     8    1
    27     7    41    1
    28     7    42    1
    29     8     9    1
    30     8    43    1
    31     8    44    1
    32     9    10    1
    33     9    45    1
    34     9    46    1
    35    10    11    2
    36    10    12    1
    37    10    24    1
    38    12    13    1
    39    12    47    1
    40    12    48    1
    41    13    14    2
    42    13    15    1
    43    15    16    1
    44    15    20    1
    45    16    17    1
    46    16    49    1
    47    16    50    1
    48    17    18    1
    49    17    19    1
    50    17    51    1
    51    18    52    1
    52    18    53    1
    53    18    54    1
    54    19    55    1
    55    19    56    1
    56    19    57    1
    57    20    21    1
    58    20    58    1
    59    20    59    1
    60    21    22    1
    61    21    23    1
    62    21    60    1
    63    22    61    1
    64    22    62    1
    65    22    63    1
    66    23    64    1
    67    23    65    1
    68    23    66    1
    69    24    25    1
    70    24    29    2
    71    25    26    2
    72    25    67    1
    73    26    27    1
    74    26    68    1
    75    27    28    2
    76    27    69    1
    77    28    29    1
    78    28    70    1
    79    29    71    1
    80    72    73    1
    81    72   100    1
    82    72   101    1
    83    72   102    1
    84    73    74    1
    85    73    75    1
    86    73   103    1
    87    74   104    1
    88    74   105    1
    89    74   106    1
    90    75    76    1
    91    75   107    1
    92    75   108    1
    93    76    77    1
    94    76   109    1
    95    76   110    1
    96    77    78    1
    97    77   111    1
    98    77   112    1
    99    78    79    1
   100    78   113    1
   101    78   114    1
   102    79    80    1
   103    79   115    1
   104    79   116    1
   105    80    81    2
   106    80    82    1
   107    80    94    1
   108    82    83    1
   109    82   117    1
   110    82   118    1
   111    83    84    2
   112    83    85    1
   113    85    86    1
   114    85    90    1
   115    86    87    1
   116    86   119    1
   117    86   120    1
   118    87    88    1
   119    87    89    1
   120    87   121    1
   121    88   122    1
   122    88   123    1
   123    88   124    1
   124    89   125    1
   125    89   126    1
   126    89   127    1
   127    90    91    1
   128    90   128    1
   129    90   129    1
   130    91    92    1
   131    91    93    1
   132    91   130    1
   133    92   131    1
   134    92   132    1
   135    92   133    1
   136    93   134    1
   137    93   135    1
   138    93   136    1
   139    94    95    1
   140    94    99    2
   141    95    96    2
   142    95   137    1
   143    96    97    1
   144    96   138    1
   145    97    98    2
   146    97   139    1
   147    98    99    1
   148    98   140    1
   149    99   141    1
   150   142   143    1
   151   142   170    1
   152   142   171    1
   153   142   172    1
   154   143   144    1
   155   143   145    1
   156   143   173    1
   157   144   174    1
   158   144   175    1
   159   144   176    1
   160   145   146    1
   161   145   177    1
   162   145   178    1
   163   146   147    1
   164   146   179    1
   165   146   180    1
   166   147   148    1
   167   147   181    1
   168   147   182    1
   169   148   149    1
   170   148   183    1
   171   148   184    1
   172   149   150    1
   173   149   185    1
   174   149   186    1
   175   150   151    2
   176   150   152    1
   177   150   164    1
   178   152   153    1
   179   152   187    1
   180   152   188    1
   181   153   154    2
   182   153   155    1
   183   155   156    1
   184   155   160    1
   185   156   157    1
   186   156   189    1
   187   156   190    1
   188   157   158    1
   189   157   159    1
   190   157   191    1
   191   158   192    1
   192   158   193    1
   193   158   194    1
   194   159   195    1
   195   159   196    1
   196   159   197    1
   197   160   161    1
   198   160   198    1
   199   160   199    1
   200   161   162    1
   201   161   163    1
   202   161   200    1
   203   162   201    1
   204   162   202    1
   205   162   203    1
   206   163   204    1
   207   163   205    1
   208   163   206    1
   209   164   165    1
   210   164   169    2
   211   165   166    2
   212   165   207    1
   213   166   167    1
   214   166   208    1
   215   167   168    2
   216   167   209    1
   217   168   169    1
   218   168   210    1
   219   169   211    1
   220   212   213    1
   221   212   240    1
   222   212   241    1
   223   212   242    1
   224   213   214    1
   225   213   215    1
   226   213   243    1
   227   214   244    1
   228   214   245    1
   229   214   246    1
   230   215   216    1
   231   215   247    1
   232   215   248    1
   233   216   217    1
   234   216   249    1
   235   216   250    1
   236   217   218    1
   237   217   251    1
   238   217   252    1
   239   218   219    1
   240   218   253    1
   241   218   254    1
   242   219   220    1
   243   219   255    1
   244   219   256    1
   245   220   221    2
   246   220   222    1
   247   220   234    1
   248   222   223    1
   249   222   257    1
   250   222   258    1
   251   223   224    2
   252   223   225    1
   253   225   226    1
   254   225   230    1
   255   226   227    1
   256   226   259    1
   257   226   260    1
   258   227   228    1
   259   227   229    1
   260   227   261    1
   261   228   262    1
   262   228   263    1
   263   228   264    1
   264   229   265    1
   265   229   266    1
   266   229   267    1
   267   230   231    1
   268   230   268    1
   269   230   269    1
   270   231   232    1
   271   231   233    1
   272   231   270    1
   273   232   271    1
   274   232   272    1
   275   232   273    1
   276   233   274    1
   277   233   275    1
   278   233   276    1
   279   234   235    1
   280   234   239    2
   281   235   236    2
   282   235   277    1
   283   236   237    1
   284   236   278    1
   285   237   238    2
   286   237   279    1
   287   238   239    1
   288   238   280    1
   289   239   281    1
   290   282   283    1
   291   282   284    1
@<TRIPOS>SUBSTRUCTURE
     1 RES1      284 GROUP             0 ****  ****    0  
