@<TRIPOS>MOLECULE
am_c3_9H2O_c0_0_nunpairedes_0_charge_3 Charge: 3 Unpaired_Electrons: 2 XTB_Unpaired_Electrons: 0 XTB_Charge: 3
   124   137     1     0     0
SMALL
NoCharges
****
Generated from Architector

@<TRIPOS>ATOM
     1 Pr1      -0.0219    0.0871    0.0228   Pr        1 RES1   0.0000
     2 C1        0.2036    1.7009    6.0112   C.3       1 RES1   0.0000
     3 C2       -0.1565    2.8206    5.0335   C.3       1 RES1   0.0000
     4 N1        0.3377    2.5605    3.6840   N.am      1 RES1   0.0000
     5 C3       -0.1379    1.6878    2.7805   C.2       1 RES1   0.0000
     6 O1        0.5757    1.3525    1.8100   O.2       1 RES1   0.0000
     7 C4       -1.5323    1.0589    2.8041   C.ar      1 RES1   0.0000
     8 C5       -2.5509    1.2162    3.7402   C.ar      1 RES1   0.0000
     9 C6       -3.7308    0.5057    3.5781   C.ar      1 RES1   0.0000
    10 C7       -3.8555   -0.4193    2.5634   C.ar      1 RES1   0.0000
    11 C8       -2.8150   -0.5271    1.6445   C.ar      1 RES1   0.0000
    12 C9       -2.8782   -1.5630    0.5766   C.ar      1 RES1   0.0000
    13 C10      -3.8064   -2.6051    0.6521   C.ar      1 RES1   0.0000
    14 C11      -3.8088   -3.5593   -0.3437   C.ar      1 RES1   0.0000
    15 C12      -2.9395   -3.4482   -1.4205   C.ar      1 RES1   0.0000
    16 C13      -2.0766   -2.3578   -1.4675   C.ar      1 RES1   0.0000
    17 C14      -1.1053   -1.9649   -2.5699   C.2       1 RES1   0.0000
    18 O2       -0.1440   -1.2732   -2.1663   O.2       1 RES1   0.0000
    19 N2       -1.2831   -2.2568   -3.8690   N.am      1 RES1   0.0000
    20 C15      -2.3266   -3.1597   -4.3602   C.3       1 RES1   0.0000
    21 C16      -1.8544   -4.6176   -4.3949   C.3       1 RES1   0.0000
    22 C17      -0.4424   -1.7120   -4.9033   C.ar      1 RES1   0.0000
    23 C18      -0.3847   -2.3407   -6.1525   C.ar      1 RES1   0.0000
    24 C19       0.3299   -1.7955   -7.2063   C.ar      1 RES1   0.0000
    25 C20       1.0394   -0.6196   -7.0484   C.ar      1 RES1   0.0000
    26 C21       1.0154   -0.0088   -5.8075   C.ar      1 RES1   0.0000
    27 C22       0.2803   -0.5264   -4.7511   C.ar      1 RES1   0.0000
    28 N3       -2.0228   -1.4826   -0.4447   N.ar      1 RES1   0.0000
    29 N4       -1.7375    0.2595    1.7370   N.ar      1 RES1   0.0000
    30 C23       1.5548    3.2632    3.3744   C.ar      1 RES1   0.0000
    31 C24       2.4616    3.5708    4.3889   C.ar      1 RES1   0.0000
    32 C25       3.5636    4.3677    4.1265   C.ar      1 RES1   0.0000
    33 C26       3.7982    4.8492    2.8506   C.ar      1 RES1   0.0000
    34 C27       2.9041    4.5298    1.8403   C.ar      1 RES1   0.0000
    35 C28       1.7842    3.7544    2.0887   C.ar      1 RES1   0.0000
    36 H1       -0.1397    1.9716    7.0074   H         1 RES1   0.0000
    37 H2        1.2815    1.5586    6.0528   H         1 RES1   0.0000
    38 H3       -0.2508    0.7551    5.7192   H         1 RES1   0.0000
    39 H4        0.2972    3.7621    5.3485   H         1 RES1   0.0000
    40 H5       -1.2268    2.9989    5.0167   H         1 RES1   0.0000
    41 H6       -2.4913    1.8768    4.5840   H         1 RES1   0.0000
    42 H7       -4.5352    0.6684    4.2731   H         1 RES1   0.0000
    43 H8       -4.7392   -1.0209    2.4966   H         1 RES1   0.0000
    44 H9       -4.4911   -2.7060    1.4726   H         1 RES1   0.0000
    45 H10      -4.5015   -4.3826   -0.2977   H         1 RES1   0.0000
    46 H11      -2.9355   -4.2226   -2.1639   H         1 RES1   0.0000
    47 H12      -2.5997   -2.8244   -5.3642   H         1 RES1   0.0000
    48 H13      -3.2132   -3.0384   -3.7377   H         1 RES1   0.0000
    49 H14      -1.0204   -4.7572   -5.0787   H         1 RES1   0.0000
    50 H15      -2.6698   -5.2505   -4.7352   H         1 RES1   0.0000
    51 H16      -1.5175   -4.9547   -3.4161   H         1 RES1   0.0000
    52 H17      -0.8941   -3.2651   -6.3526   H         1 RES1   0.0000
    53 H18       0.3160   -2.3010   -8.1582   H         1 RES1   0.0000
    54 H19       1.5996   -0.1894   -7.8651   H         1 RES1   0.0000
    55 H20       1.5861    0.8993   -5.6776   H         1 RES1   0.0000
    56 H21       0.2641    0.0086   -3.8136   H         1 RES1   0.0000
    57 H22       2.3308    3.2096    5.3960   H         1 RES1   0.0000
    58 H23       4.2253    4.6222    4.9379   H         1 RES1   0.0000
    59 H24       4.6590    5.4669    2.6416   H         1 RES1   0.0000
    60 H25       3.0768    4.9139    0.8472   H         1 RES1   0.0000
    61 H26       1.0830    3.5517    1.2891   H         1 RES1   0.0000
    62 C29       2.9294   -4.4300    3.5037   C.3       1 RES1   0.0000
    63 C30       1.4183   -4.5633    3.3347   C.3       1 RES1   0.0000
    64 N5        0.7687   -3.2692    3.1399   N.am      1 RES1   0.0000
    65 C31       0.8372   -2.5056    2.0424   C.2       1 RES1   0.0000
    66 O3        0.1951   -1.4376    1.9668   O.2       1 RES1   0.0000
    67 C32       1.6899   -2.7930    0.8175   C.ar      1 RES1   0.0000
    68 C33       2.2922   -3.9853    0.4294   C.ar      1 RES1   0.0000
    69 C34       3.0509   -3.9986   -0.7322   C.ar      1 RES1   0.0000
    70 C35       3.1784   -2.8525   -1.4881   C.ar      1 RES1   0.0000
    71 C36       2.5178   -1.6971   -1.0707   C.ar      1 RES1   0.0000
    72 C37       2.5806   -0.4544   -1.8804   C.ar      1 RES1   0.0000
    73 C38       3.4917   -0.3314   -2.9284   C.ar      1 RES1   0.0000
    74 C39       3.5535    0.8625   -3.6175   C.ar      1 RES1   0.0000
    75 C40       2.6440    1.8726   -3.3355   C.ar      1 RES1   0.0000
    76 C41       1.6886    1.6464   -2.3530   C.ar      1 RES1   0.0000
    77 C42       0.5685    2.5787   -1.9298   C.2       1 RES1   0.0000
    78 O4        0.1704    2.3937   -0.7611   O.2       1 RES1   0.0000
    79 N6        0.0135    3.5037   -2.7358   N.am      1 RES1   0.0000
    80 C43       0.1924    3.5497   -4.1980   C.3       1 RES1   0.0000
    81 C44       1.1897    4.5757   -4.7559   C.3       1 RES1   0.0000
    82 C45      -1.0127    4.3926   -2.2480   C.ar      1 RES1   0.0000
    83 C46      -1.1838    5.6252   -2.8757   C.ar      1 RES1   0.0000
    84 C47      -2.2043    6.4865   -2.5127   C.ar      1 RES1   0.0000
    85 C48      -3.1012    6.1422   -1.5183   C.ar      1 RES1   0.0000
    86 C49      -2.9173    4.9373   -0.8647   C.ar      1 RES1   0.0000
    87 C50      -1.8849    4.0782   -1.2057   C.ar      1 RES1   0.0000
    88 N7        1.7212    0.5293   -1.6048   N.ar      1 RES1   0.0000
    89 N8        1.7963   -1.6889    0.0523   N.ar      1 RES1   0.0000
    90 C51       0.0884   -2.7768    4.3033   C.ar      1 RES1   0.0000
    91 C52      -1.1403   -2.1337    4.2216   C.ar      1 RES1   0.0000
    92 C53      -1.7689   -1.6947    5.3771   C.ar      1 RES1   0.0000
    93 C54      -1.2037   -1.9143    6.6216   C.ar      1 RES1   0.0000
    94 C55       0.0069   -2.5844    6.7046   C.ar      1 RES1   0.0000
    95 C56       0.6571   -3.0009    5.5572   C.ar      1 RES1   0.0000
    96 H27       3.3782   -5.4159    3.5781   H         1 RES1   0.0000
    97 H28       3.1676   -3.8824    4.4128   H         1 RES1   0.0000
    98 H29       3.3775   -3.8960    2.6682   H         1 RES1   0.0000
    99 H30       0.9738   -5.0047    4.2306   H         1 RES1   0.0000
   100 H31       1.1405   -5.2124    2.5029   H         1 RES1   0.0000
   101 H32       2.1608   -4.9121    0.9559   H         1 RES1   0.0000
   102 H33       3.5303   -4.9151   -1.0328   H         1 RES1   0.0000
   103 H34       3.7448   -2.8837   -2.3972   H         1 RES1   0.0000
   104 H35       4.1602   -1.1298   -3.1847   H         1 RES1   0.0000
   105 H36       4.2986    0.9992   -4.3844   H         1 RES1   0.0000
   106 H37       2.6877    2.8061   -3.8651   H         1 RES1   0.0000
   107 H38      -0.8001    3.7659   -4.6135   H         1 RES1   0.0000
   108 H39       0.4806    2.5462   -4.5209   H         1 RES1   0.0000
   109 H40       0.7891    5.5838   -4.7895   H         1 RES1   0.0000
   110 H41       1.4221    4.3038   -5.7826   H         1 RES1   0.0000
   111 H42       2.1106    4.6308   -4.1826   H         1 RES1   0.0000
   112 H43      -0.5200    5.9535   -3.6499   H         1 RES1   0.0000
   113 H44      -2.2937    7.4270   -3.0288   H         1 RES1   0.0000
   114 H45      -3.9082    6.8002   -1.2371   H         1 RES1   0.0000
   115 H46      -3.5912    4.6650   -0.0667   H         1 RES1   0.0000
   116 H47      -1.7554    3.1875   -0.6140   H         1 RES1   0.0000
   117 H48      -1.6171   -2.0075    3.2622   H         1 RES1   0.0000
   118 H49      -2.7234   -1.1961    5.3023   H         1 RES1   0.0000
   119 H50      -1.6992   -1.5821    7.5209   H         1 RES1   0.0000
   120 H51       0.4359   -2.8005    7.6698   H         1 RES1   0.0000
   121 H52       1.6022   -3.5114    5.6495   H         1 RES1   0.0000
   122 O5       -2.2429    1.0454   -1.2374   O.3       1 RES1   0.0000
   123 H53      -2.9453    1.5445   -0.7930   H         1 RES1   0.0000
   124 H54      -2.2438    1.3773   -2.1458   H         1 RES1   0.0000
@<TRIPOS>BOND
     1     1     6    1
     2     1    18    1
     3     1    28    1
     4     1    29    1
     5     1    66    1
     6     1    78    1
     7     1    88    1
     8     1    89    1
     9     1   122    1
    10     2     3    1
    11     2    36    1
    12     2    37    1
    13     2    38    1
    14     3     4    1
    15     3    39    1
    16     3    40    1
    17     4     5    1
    18     4    30    1
    19     5     6    2
    20     5     7    1
    21     7     8    1
    22     7    29    2
    23     8     9    2
    24     8    41    1
    25     9    10    1
    26     9    42    1
    27    10    11    2
    28    10    43    1
    29    11    12    1
    30    11    29    1
    31    12    13    1
    32    12    28    2
    33    13    14    2
    34    13    44    1
    35    14    15    1
    36    14    45    1
    37    15    16    2
    38    15    46    1
    39    16    17    1
    40    16    28    1
    41    17    18    2
    42    17    19    1
    43    19    20    1
    44    19    22    1
    45    20    21    1
    46    20    47    1
    47    20    48    1
    48    21    49    1
    49    21    50    1
    50    21    51    1
    51    22    23    1
    52    22    27    2
    53    23    24    2
    54    23    52    1
    55    24    25    1
    56    24    53    1
    57    25    26    2
    58    25    54    1
    59    26    27    1
    60    26    55    1
    61    27    56    1
    62    30    31    1
    63    30    35    2
    64    31    32    2
    65    31    57    1
    66    32    33    1
    67    32    58    1
    68    33    34    2
    69    33    59    1
    70    34    35    1
    71    34    60    1
    72    35    61    1
    73    62    63    1
    74    62    96    1
    75    62    97    1
    76    62    98    1
    77    63    64    1
    78    63    99    1
    79    63   100    1
    80    64    65    1
    81    64    90    1
    82    65    66    2
    83    65    67    1
    84    67    68    1
    85    67    89    2
    86    68    69    2
    87    68   101    1
    88    69    70    1
    89    69   102    1
    90    70    71    2
    91    70   103    1
    92    71    72    1
    93    71    89    1
    94    72    73    1
    95    72    88    2
    96    73    74    2
    97    73   104    1
    98    74    75    1
    99    74   105    1
   100    75    76    2
   101    75   106    1
   102    76    77    1
   103    76    88    1
   104    77    78    2
   105    77    79    1
   106    79    80    1
   107    79    82    1
   108    80    81    1
   109    80   107    1
   110    80   108    1
   111    81   109    1
   112    81   110    1
   113    81   111    1
   114    82    83    1
   115    82    87    2
   116    83    84    2
   117    83   112    1
   118    84    85    1
   119    84   113    1
   120    85    86    2
   121    85   114    1
   122    86    87    1
   123    86   115    1
   124    87   116    1
   125    90    91    1
   126    90    95    2
   127    91    92    2
   128    91   117    1
   129    92    93    1
   130    92   118    1
   131    93    94    2
   132    93   119    1
   133    94    95    1
   134    94   120    1
   135    95   121    1
   136   122   123    1
   137   122   124    1
@<TRIPOS>SUBSTRUCTURE
     1 RES1      124 GROUP             0 ****  ****    0  
