@<TRIPOS>MOLECULE
cn9_YICLED_0_nunpairedes_0_charge_3 Charge: 3 Unpaired_Electrons: 2 XTB_Unpaired_Electrons: 0 XTB_Charge: 3
   440   443     1     0     0
SMALL
NoCharges
****
Generated from Architector

@<TRIPOS>ATOM
     1 Pr1      -0.0706   -0.0930    0.0937   Pr        1 RES1   0.0000
     2 C1        3.7245   -1.4797    5.3938   C.3       1 RES1   0.0000
     3 C2        3.2751   -2.2207    6.6565   C.3       1 RES1   0.0000
     4 C3        2.2114   -1.5236    7.5123   C.3       1 RES1   0.0000
     5 C4        0.9056   -1.2342    6.7753   C.3       1 RES1   0.0000
     6 C5       -0.1329   -0.6966    7.7548   C.3       1 RES1   0.0000
     7 C6       -1.4858   -0.4243    7.1007   C.3       1 RES1   0.0000
     8 C7       -1.4609    0.7156    6.0782   C.3       1 RES1   0.0000
     9 C8       -2.7992    0.9871    5.3558   C.3       1 RES1   0.0000
    10 N1       -2.8586    0.3920    4.0242   N.am      1 RES1   0.0000
    11 C9       -3.8342   -0.6768    3.8410   C.3       1 RES1   0.0000
    12 C10      -3.5807   -1.8802    4.7456   C.3       1 RES1   0.0000
    13 C11      -4.5860   -3.0162    4.5706   C.3       1 RES1   0.0000
    14 C12      -4.5190   -4.0556    5.6997   C.3       1 RES1   0.0000
    15 C13      -3.4698   -5.1574    5.5249   C.3       1 RES1   0.0000
    16 C14      -2.0676   -4.8228    6.0420   C.3       1 RES1   0.0000
    17 C15      -1.9672   -4.9172    7.5644   C.3       1 RES1   0.0000
    18 C16      -0.5393   -4.7524    8.0693   C.3       1 RES1   0.0000
    19 C17      -2.0844    0.7767    3.0126   C.2       1 RES1   0.0000
    20 O1       -2.0051    0.1341    1.9428   O.2       1 RES1   0.0000
    21 C18      -1.2610    2.0403    3.1493   C.3       1 RES1   0.0000
    22 C19      -1.3503    2.8029    1.8412   C.2       1 RES1   0.0000
    23 O2       -0.7682    2.3208    0.8483   O.2       1 RES1   0.0000
    24 N2       -2.0177    3.9569    1.8014   N.am      1 RES1   0.0000
    25 C20      -2.0587    4.6888    0.5437   C.3       1 RES1   0.0000
    26 C21      -1.6091    6.1466    0.6096   C.3       1 RES1   0.0000
    27 C22      -0.1262    6.3639    0.9324   C.3       1 RES1   0.0000
    28 C23       0.1568    6.5924    2.4170   C.3       1 RES1   0.0000
    29 C24       1.5736    7.1217    2.6467   C.3       1 RES1   0.0000
    30 C25       1.8525    7.5027    4.1027   C.3       1 RES1   0.0000
    31 C26       1.8649    6.3097    5.0563   C.3       1 RES1   0.0000
    32 C27       2.3761    6.6845    6.4406   C.3       1 RES1   0.0000
    33 C28      -2.9127    4.4504    2.8393   C.3       1 RES1   0.0000
    34 C29      -4.3427    3.8945    2.7054   C.3       1 RES1   0.0000
    35 C30      -5.2992    4.8058    1.9274   C.3       1 RES1   0.0000
    36 C31      -6.6627    4.1539    1.6786   C.3       1 RES1   0.0000
    37 C32      -6.6368    3.0467    0.6224   C.3       1 RES1   0.0000
    38 C33      -6.6215    3.5861   -0.8072   C.3       1 RES1   0.0000
    39 C34      -6.3007    2.5084   -1.8435   C.3       1 RES1   0.0000
    40 C35      -4.8230    2.1252   -1.8615   C.3       1 RES1   0.0000
    41 H1        4.3280   -2.1455    4.7824   H         1 RES1   0.0000
    42 H2        4.3309   -0.6065    5.6232   H         1 RES1   0.0000
    43 H3        2.8852   -1.1489    4.7811   H         1 RES1   0.0000
    44 H4        4.1582   -2.4106    7.2699   H         1 RES1   0.0000
    45 H5        2.8787   -3.1905    6.3669   H         1 RES1   0.0000
    46 H6        2.5708   -0.5770    7.9145   H         1 RES1   0.0000
    47 H7        2.0191   -2.1747    8.3704   H         1 RES1   0.0000
    48 H8        1.0936   -0.5009    5.9888   H         1 RES1   0.0000
    49 H9        0.5280   -2.1443    6.3023   H         1 RES1   0.0000
    50 H10       0.2527    0.1977    8.2439   H         1 RES1   0.0000
    51 H11      -0.2919   -1.4490    8.5302   H         1 RES1   0.0000
    52 H12      -2.2096   -0.1849    7.8800   H         1 RES1   0.0000
    53 H13      -1.7758   -1.3591    6.6249   H         1 RES1   0.0000
    54 H14      -0.7085    0.4839    5.3253   H         1 RES1   0.0000
    55 H15      -1.1517    1.6245    6.5963   H         1 RES1   0.0000
    56 H16      -2.9799    2.0622    5.2817   H         1 RES1   0.0000
    57 H17      -3.6302    0.5823    5.9306   H         1 RES1   0.0000
    58 H18      -3.8222   -0.9671    2.7940   H         1 RES1   0.0000
    59 H19      -4.8195   -0.2535    4.0500   H         1 RES1   0.0000
    60 H20      -3.6521   -1.5540    5.7812   H         1 RES1   0.0000
    61 H21      -2.5726   -2.2509    4.5664   H         1 RES1   0.0000
    62 H22      -4.4492   -3.5016    3.6012   H         1 RES1   0.0000
    63 H23      -5.5906   -2.5940    4.5800   H         1 RES1   0.0000
    64 H24      -5.4975   -4.5337    5.7607   H         1 RES1   0.0000
    65 H25      -4.3542   -3.5434    6.6484   H         1 RES1   0.0000
    66 H26      -3.4176   -5.4324    4.4699   H         1 RES1   0.0000
    67 H27      -3.8133   -6.0402    6.0655   H         1 RES1   0.0000
    68 H28      -1.7689   -3.8231    5.7207   H         1 RES1   0.0000
    69 H29      -1.3603   -5.5341    5.6066   H         1 RES1   0.0000
    70 H30      -2.3416   -5.8917    7.8802   H         1 RES1   0.0000
    71 H31      -2.5999   -4.1567    8.0255   H         1 RES1   0.0000
    72 H32       0.1090   -5.5183    7.6496   H         1 RES1   0.0000
    73 H33      -0.5135   -4.8427    9.1515   H         1 RES1   0.0000
    74 H34      -0.1398   -3.7782    7.8007   H         1 RES1   0.0000
    75 H35      -0.2199    1.6997    3.1891   H         1 RES1   0.0000
    76 H36      -1.5018    2.6212    4.0273   H         1 RES1   0.0000
    77 H37      -3.0776    4.6436    0.1538   H         1 RES1   0.0000
    78 H38      -1.4051    4.1501   -0.1401   H         1 RES1   0.0000
    79 H39      -1.8238    6.5560   -0.3771   H         1 RES1   0.0000
    80 H40      -2.2136    6.7189    1.3128   H         1 RES1   0.0000
    81 H41       0.2139    7.2483    0.3918   H         1 RES1   0.0000
    82 H42       0.4630    5.5164    0.5726   H         1 RES1   0.0000
    83 H43       0.0106    5.6620    2.9711   H         1 RES1   0.0000
    84 H44      -0.5473    7.3334    2.7995   H         1 RES1   0.0000
    85 H45       1.7212    8.0088    2.0262   H         1 RES1   0.0000
    86 H46       2.2988    6.3737    2.3167   H         1 RES1   0.0000
    87 H47       1.1037    8.2225    4.4369   H         1 RES1   0.0000
    88 H48       2.8241    7.9988    4.1504   H         1 RES1   0.0000
    89 H49       2.5175    5.5362    4.6409   H         1 RES1   0.0000
    90 H50       0.8583    5.8934    5.1433   H         1 RES1   0.0000
    91 H51       3.4069    7.0235    6.3855   H         1 RES1   0.0000
    92 H52       2.3307    5.8304    7.1124   H         1 RES1   0.0000
    93 H53       1.7779    7.4835    6.8676   H         1 RES1   0.0000
    94 H54      -2.9417    5.5366    2.7684   H         1 RES1   0.0000
    95 H55      -2.5160    4.2201    3.8267   H         1 RES1   0.0000
    96 H56      -4.7634    3.7611    3.7028   H         1 RES1   0.0000
    97 H57      -4.2927    2.9084    2.2378   H         1 RES1   0.0000
    98 H58      -4.8723    5.0938    0.9681   H         1 RES1   0.0000
    99 H59      -5.4525    5.7220    2.5004   H         1 RES1   0.0000
   100 H60      -7.3681    4.9206    1.3549   H         1 RES1   0.0000
   101 H61      -7.0330    3.7461    2.6198   H         1 RES1   0.0000
   102 H62      -7.5292    2.4300    0.7355   H         1 RES1   0.0000
   103 H63      -5.7755    2.3963    0.7857   H         1 RES1   0.0000
   104 H64      -5.8930    4.3929   -0.9056   H         1 RES1   0.0000
   105 H65      -7.6027    4.0096   -1.0255   H         1 RES1   0.0000
   106 H66      -6.5736    2.8788   -2.8331   H         1 RES1   0.0000
   107 H67      -6.9125    1.6257   -1.6464   H         1 RES1   0.0000
   108 H68      -4.2088    3.0157   -1.9827   H         1 RES1   0.0000
   109 H69      -4.6152    1.4569   -2.6937   H         1 RES1   0.0000
   110 H70      -4.5190    1.6245   -0.9438   H         1 RES1   0.0000
   111 C36      -3.2008   -8.7553   -1.9673   C.3       1 RES1   0.0000
   112 C37      -3.3961   -8.3831   -3.4311   C.3       1 RES1   0.0000
   113 C38      -4.8012   -7.8751   -3.7569   C.3       1 RES1   0.0000
   114 C39      -5.2185   -6.5955   -3.0297   C.3       1 RES1   0.0000
   115 C40      -4.3819   -5.3776   -3.4205   C.3       1 RES1   0.0000
   116 C41      -4.9529   -4.0857   -2.8370   C.3       1 RES1   0.0000
   117 C42      -4.0976   -2.8554   -3.1563   C.3       1 RES1   0.0000
   118 C43      -4.4257   -1.6426   -2.2739   C.3       1 RES1   0.0000
   119 N3       -4.2344   -1.9857   -0.8693   N.am      1 RES1   0.0000
   120 C44      -5.4393   -2.2177   -0.0877   C.3       1 RES1   0.0000
   121 C45      -5.8678   -0.9442    0.6554   C.3       1 RES1   0.0000
   122 C46      -6.8407   -1.2672    1.7894   C.3       1 RES1   0.0000
   123 C47      -7.3827   -0.0057    2.4611   C.3       1 RES1   0.0000
   124 C48      -8.2456   -0.2957    3.6951   C.3       1 RES1   0.0000
   125 C49      -7.4858   -0.4418    5.0201   C.3       1 RES1   0.0000
   126 C50      -7.4050    0.8303    5.8682   C.3       1 RES1   0.0000
   127 C51      -6.6771    1.9893    5.1978   C.3       1 RES1   0.0000
   128 C52      -3.0125   -1.8686   -0.3312   C.2       1 RES1   0.0000
   129 O3       -2.0979   -1.2143   -0.8645   O.2       1 RES1   0.0000
   130 C53      -2.7269   -2.6684    0.9306   C.3       1 RES1   0.0000
   131 C54      -1.4611   -3.4980    0.6819   C.2       1 RES1   0.0000
   132 O4       -0.4582   -2.9165    0.2384   O.2       1 RES1   0.0000
   133 N4       -1.5309   -4.7982    0.9821   N.am      1 RES1   0.0000
   134 C55      -0.4344   -5.7668    0.8821   C.3       1 RES1   0.0000
   135 C56       0.5670   -5.6662   -0.2620   C.3       1 RES1   0.0000
   136 C57       0.1758   -6.4921   -1.4839   C.3       1 RES1   0.0000
   137 C58       1.4177   -6.8394   -2.3056   C.3       1 RES1   0.0000
   138 C59       1.1067   -7.4104   -3.6931   C.3       1 RES1   0.0000
   139 C60       0.0879   -6.6021   -4.5056   C.3       1 RES1   0.0000
   140 C61       0.3709   -5.0948   -4.5387   C.3       1 RES1   0.0000
   141 C62      -0.8925   -4.2733   -4.3093   C.3       1 RES1   0.0000
   142 C63      -2.6384   -5.3646    1.7532   C.3       1 RES1   0.0000
   143 C64      -3.7655   -5.9121    0.8701   C.3       1 RES1   0.0000
   144 C65      -5.0968   -6.0030    1.6169   C.3       1 RES1   0.0000
   145 C66      -6.2235   -6.4250    0.6799   C.3       1 RES1   0.0000
   146 C67      -7.5805   -6.5016    1.3717   C.3       1 RES1   0.0000
   147 C68      -8.6730   -7.0521    0.4509   C.3       1 RES1   0.0000
   148 C69      -8.8961   -6.2627   -0.8420   C.3       1 RES1   0.0000
   149 C70      -9.2476   -4.7992   -0.5993   C.3       1 RES1   0.0000
   150 H71      -2.2523   -9.2688   -1.8303   H         1 RES1   0.0000
   151 H72      -3.9951   -9.4176   -1.6346   H         1 RES1   0.0000
   152 H73      -3.2019   -7.8677   -1.3400   H         1 RES1   0.0000
   153 H74      -3.2083   -9.2645   -4.0452   H         1 RES1   0.0000
   154 H75      -2.6603   -7.6301   -3.7161   H         1 RES1   0.0000
   155 H76      -5.5191   -8.6600   -3.5094   H         1 RES1   0.0000
   156 H77      -4.8622   -7.6960   -4.8328   H         1 RES1   0.0000
   157 H78      -5.1544   -6.7508   -1.9520   H         1 RES1   0.0000
   158 H79      -6.2651   -6.3974   -3.2722   H         1 RES1   0.0000
   159 H80      -4.3343   -5.3053   -4.5076   H         1 RES1   0.0000
   160 H81      -3.3649   -5.5117   -3.0493   H         1 RES1   0.0000
   161 H82      -5.0217   -4.2122   -1.7552   H         1 RES1   0.0000
   162 H83      -5.9641   -3.9354   -3.2179   H         1 RES1   0.0000
   163 H84      -4.2405   -2.5713   -4.1990   H         1 RES1   0.0000
   164 H85      -3.0426   -3.0984   -3.0237   H         1 RES1   0.0000
   165 H86      -5.4591   -1.3295   -2.4214   H         1 RES1   0.0000
   166 H87      -3.7608   -0.8137   -2.5248   H         1 RES1   0.0000
   167 H88      -5.3078   -3.0288    0.6288   H         1 RES1   0.0000
   168 H89      -6.2330   -2.5261   -0.7670   H         1 RES1   0.0000
   169 H90      -6.3359   -0.2562   -0.0489   H         1 RES1   0.0000
   170 H91      -4.9807   -0.4413    1.0521   H         1 RES1   0.0000
   171 H92      -6.3363   -1.8994    2.5213   H         1 RES1   0.0000
   172 H93      -7.6773   -1.8380    1.3844   H         1 RES1   0.0000
   173 H94      -7.9974    0.5150    1.7276   H         1 RES1   0.0000
   174 H95      -6.5542    0.6551    2.7170   H         1 RES1   0.0000
   175 H96      -8.8019   -1.2136    3.5026   H         1 RES1   0.0000
   176 H97      -8.9782    0.5024    3.8063   H         1 RES1   0.0000
   177 H98      -6.4750   -0.8026    4.8313   H         1 RES1   0.0000
   178 H99      -7.9841   -1.1986    5.6274   H         1 RES1   0.0000
   179 H100     -6.8958    0.5845    6.8046   H         1 RES1   0.0000
   180 H101     -8.4149    1.1533    6.1239   H         1 RES1   0.0000
   181 H102     -5.6813    1.6931    4.8677   H         1 RES1   0.0000
   182 H103     -6.5715    2.8164    5.8963   H         1 RES1   0.0000
   183 H104     -7.2375    2.3420    4.3366   H         1 RES1   0.0000
   184 H105     -3.5803   -3.2731    1.1904   H         1 RES1   0.0000
   185 H106     -2.4871   -1.9872    1.7477   H         1 RES1   0.0000
   186 H107     -0.9142   -6.7427    0.7985   H         1 RES1   0.0000
   187 H108      0.0947   -5.7439    1.8387   H         1 RES1   0.0000
   188 H109      1.5085   -6.0703    0.1145   H         1 RES1   0.0000
   189 H110      0.7351   -4.6280   -0.5429   H         1 RES1   0.0000
   190 H111     -0.5422   -5.9389   -2.0818   H         1 RES1   0.0000
   191 H112     -0.3040   -7.4204   -1.1752   H         1 RES1   0.0000
   192 H113      2.0090   -7.5768   -1.7582   H         1 RES1   0.0000
   193 H114      2.0466   -5.9514   -2.4028   H         1 RES1   0.0000
   194 H115      0.7115   -8.4211   -3.5793   H         1 RES1   0.0000
   195 H116      2.0441   -7.4862   -4.2502   H         1 RES1   0.0000
   196 H117     -0.9063   -6.7682   -4.0883   H         1 RES1   0.0000
   197 H118      0.0633   -7.0022   -5.5193   H         1 RES1   0.0000
   198 H119      0.8241   -4.8229   -5.4917   H         1 RES1   0.0000
   199 H120      1.0856   -4.8459   -3.7570   H         1 RES1   0.0000
   200 H121     -1.5913   -4.3938   -5.1317   H         1 RES1   0.0000
   201 H122     -0.6654   -3.2158   -4.2038   H         1 RES1   0.0000
   202 H123     -1.3836   -4.5954   -3.3930   H         1 RES1   0.0000
   203 H124     -3.0198   -4.6242    2.4584   H         1 RES1   0.0000
   204 H125     -2.2324   -6.1732    2.3644   H         1 RES1   0.0000
   205 H126     -3.4909   -6.9072    0.5192   H         1 RES1   0.0000
   206 H127     -3.8780   -5.2747   -0.0112   H         1 RES1   0.0000
   207 H128     -5.3430   -5.0338    2.0606   H         1 RES1   0.0000
   208 H129     -5.0084   -6.7185    2.4347   H         1 RES1   0.0000
   209 H130     -5.9879   -7.4020    0.2576   H         1 RES1   0.0000
   210 H131     -6.2794   -5.7088   -0.1413   H         1 RES1   0.0000
   211 H132     -7.8658   -5.5119    1.7336   H         1 RES1   0.0000
   212 H133     -7.5055   -7.1580    2.2415   H         1 RES1   0.0000
   213 H134     -9.6106   -7.0748    1.0092   H         1 RES1   0.0000
   214 H135     -8.4239   -8.0825    0.1869   H         1 RES1   0.0000
   215 H136     -9.7167   -6.7360   -1.3849   H         1 RES1   0.0000
   216 H137     -8.0111   -6.3302   -1.4780   H         1 RES1   0.0000
   217 H138    -10.0957   -4.7257    0.0767   H         1 RES1   0.0000
   218 H139     -9.5155   -4.3146   -1.5354   H         1 RES1   0.0000
   219 H140     -8.4079   -4.2606   -0.1626   H         1 RES1   0.0000
   220 C71       4.7236    1.1405   -8.0295   C.3       1 RES1   0.0000
   221 C72       5.8058    0.3181   -7.3369   C.3       1 RES1   0.0000
   222 C73       6.8505    1.1635   -6.6042   C.3       1 RES1   0.0000
   223 C74       6.2747    2.1775   -5.6165   C.3       1 RES1   0.0000
   224 C75       5.5996    1.5438   -4.3984   C.3       1 RES1   0.0000
   225 C76       4.8487    2.6130   -3.6103   C.3       1 RES1   0.0000
   226 C77       4.3081    2.1556   -2.2569   C.3       1 RES1   0.0000
   227 C78       3.5599    3.2804   -1.5307   C.3       1 RES1   0.0000
   228 N5        2.2628    3.5658   -2.1265   N.am      1 RES1   0.0000
   229 C79       2.2444    4.7067   -3.0324   C.3       1 RES1   0.0000
   230 C80       1.8679    6.0526   -2.3914   C.3       1 RES1   0.0000
   231 C81       0.4226    6.4810   -2.6629   C.3       1 RES1   0.0000
   232 C82       0.2587    8.0027   -2.7410   C.3       1 RES1   0.0000
   233 C83      -1.1811    8.4595   -2.4918   C.3       1 RES1   0.0000
   234 C84      -2.2296    7.6677   -3.2739   C.3       1 RES1   0.0000
   235 C85      -3.6463    8.2130   -3.0823   C.3       1 RES1   0.0000
   236 C86      -4.2191    7.9250   -1.6982   C.3       1 RES1   0.0000
   237 C87       1.2438    2.7523   -1.8346   C.2       1 RES1   0.0000
   238 O5        1.3793    1.7706   -1.0781   O.2       1 RES1   0.0000
   239 C88      -0.1189    3.0489   -2.4240   C.3       1 RES1   0.0000
   240 C89      -0.6376    1.7937   -3.1121   C.2       1 RES1   0.0000
   241 O6       -0.8335    0.7945   -2.4045   O.2       1 RES1   0.0000
   242 N6       -0.8832    1.8117   -4.4290   N.am      1 RES1   0.0000
   243 C90      -1.5580    0.6496   -5.0029   C.3       1 RES1   0.0000
   244 C91      -0.7034   -0.6061   -5.1475   C.3       1 RES1   0.0000
   245 C92       0.5783   -0.4261   -5.9599   C.3       1 RES1   0.0000
   246 C93       1.1337   -1.7898   -6.3977   C.3       1 RES1   0.0000
   247 C94       2.6573   -1.8665   -6.5028   C.3       1 RES1   0.0000
   248 C95       3.3955   -1.7365   -5.1685   C.3       1 RES1   0.0000
   249 C96       3.0711   -2.8378   -4.1658   C.3       1 RES1   0.0000
   250 C97       3.8537   -2.6586   -2.8718   C.3       1 RES1   0.0000
   251 C98      -0.6909    2.9606   -5.3076   C.3       1 RES1   0.0000
   252 C99       0.7152    3.0993   -5.9162   C.3       1 RES1   0.0000
   253 C100      0.9155    4.5101   -6.4866   C.3       1 RES1   0.0000
   254 C101      2.3666    4.8240   -6.8548   C.3       1 RES1   0.0000
   255 C102      2.5415    6.2906   -7.2532   C.3       1 RES1   0.0000
   256 C103      3.9701    6.6406   -7.6791   C.3       1 RES1   0.0000
   257 C104      5.0019    6.6966   -6.5496   C.3       1 RES1   0.0000
   258 C105      4.7384    7.8230   -5.5562   C.3       1 RES1   0.0000
   259 H141      4.1530    0.5114   -8.7089   H         1 RES1   0.0000
   260 H142      5.1709    1.9437   -8.6090   H         1 RES1   0.0000
   261 H143      4.0335    1.5736   -7.3070   H         1 RES1   0.0000
   262 H144      6.3283   -0.2806   -8.0842   H         1 RES1   0.0000
   263 H145      5.3391   -0.3782   -6.6400   H         1 RES1   0.0000
   264 H146      7.4362    1.7095   -7.3462   H         1 RES1   0.0000
   265 H147      7.5330    0.4950   -6.0737   H         1 RES1   0.0000
   266 H148      5.5604    2.8172   -6.1376   H         1 RES1   0.0000
   267 H149      7.0860    2.8208   -5.2705   H         1 RES1   0.0000
   268 H150      6.3544    1.0659   -3.7715   H         1 RES1   0.0000
   269 H151      4.8998    0.7750   -4.7227   H         1 RES1   0.0000
   270 H152      4.0259    2.9621   -4.2369   H         1 RES1   0.0000
   271 H153      5.5292    3.4504   -3.4428   H         1 RES1   0.0000
   272 H154      5.1425    1.8352   -1.6299   H         1 RES1   0.0000
   273 H155      3.6388    1.2999   -2.3733   H         1 RES1   0.0000
   274 H156      4.1452    4.1999   -1.5571   H         1 RES1   0.0000
   275 H157      3.3993    3.0133   -0.4875   H         1 RES1   0.0000
   276 H158      1.5886    4.5109   -3.8740   H         1 RES1   0.0000
   277 H159      3.2524    4.7923   -3.4351   H         1 RES1   0.0000
   278 H160      2.5326    6.8113   -2.8046   H         1 RES1   0.0000
   279 H161      2.0445    6.0166   -1.3152   H         1 RES1   0.0000
   280 H162     -0.2315    6.0793   -1.8896   H         1 RES1   0.0000
   281 H163      0.0948    6.0773   -3.6231   H         1 RES1   0.0000
   282 H164      0.9060    8.4845   -2.0067   H         1 RES1   0.0000
   283 H165      0.5850    8.3405   -3.7260   H         1 RES1   0.0000
   284 H166     -1.2617    9.5122   -2.7650   H         1 RES1   0.0000
   285 H167     -1.3908    8.3875   -1.4240   H         1 RES1   0.0000
   286 H168     -2.2244    6.6177   -2.9648   H         1 RES1   0.0000
   287 H169     -1.9810    7.6988   -4.3366   H         1 RES1   0.0000
   288 H170     -4.2997    7.7580   -3.8297   H         1 RES1   0.0000
   289 H171     -3.6454    9.2893   -3.2571   H         1 RES1   0.0000
   290 H172     -5.2482    8.2681   -1.6416   H         1 RES1   0.0000
   291 H173     -4.2094    6.8544   -1.4925   H         1 RES1   0.0000
   292 H174     -3.6549    8.4353   -0.9219   H         1 RES1   0.0000
   293 H175     -0.1274    3.9421   -3.0273   H         1 RES1   0.0000
   294 H176     -0.7918    3.1811   -1.5716   H         1 RES1   0.0000
   295 H177     -1.9369    0.9320   -5.9837   H         1 RES1   0.0000
   296 H178     -2.4027    0.4072   -4.3515   H         1 RES1   0.0000
   297 H179     -1.3302   -1.3464   -5.6486   H         1 RES1   0.0000
   298 H180     -0.4690   -0.9829   -4.1495   H         1 RES1   0.0000
   299 H181      1.3139    0.1209   -5.3676   H         1 RES1   0.0000
   300 H182      0.3662    0.1685   -6.8487   H         1 RES1   0.0000
   301 H183      0.7098   -2.0443   -7.3701   H         1 RES1   0.0000
   302 H184      0.7974   -2.5554   -5.7025   H         1 RES1   0.0000
   303 H185      3.0122   -1.0887   -7.1805   H         1 RES1   0.0000
   304 H186      2.9148   -2.8307   -6.9458   H         1 RES1   0.0000
   305 H187      3.1801   -0.7642   -4.7147   H         1 RES1   0.0000
   306 H188      4.4680   -1.7731   -5.3688   H         1 RES1   0.0000
   307 H189      3.3158   -3.8048   -4.6069   H         1 RES1   0.0000
   308 H190      2.0030   -2.8315   -3.9445   H         1 RES1   0.0000
   309 H191      4.9185   -2.7640   -3.0606   H         1 RES1   0.0000
   310 H192      3.5587   -3.4082   -2.1424   H         1 RES1   0.0000
   311 H193      3.6759   -1.6707   -2.4488   H         1 RES1   0.0000
   312 H194     -0.9469    3.8761   -4.7701   H         1 RES1   0.0000
   313 H195     -1.4105    2.8800   -6.1229   H         1 RES1   0.0000
   314 H196      0.8527    2.3719   -6.7156   H         1 RES1   0.0000
   315 H197      1.4702    2.8839   -5.1557   H         1 RES1   0.0000
   316 H198      0.5753    5.2525   -5.7593   H         1 RES1   0.0000
   317 H199      0.2875    4.6308   -7.3693   H         1 RES1   0.0000
   318 H200      2.6780    4.1867   -7.6825   H         1 RES1   0.0000
   319 H201      3.0137    4.5999   -6.0047   H         1 RES1   0.0000
   320 H202      2.2399    6.9337   -6.4238   H         1 RES1   0.0000
   321 H203      1.8752    6.5047   -8.0915   H         1 RES1   0.0000
   322 H204      3.9502    7.6200   -8.1602   H         1 RES1   0.0000
   323 H205      4.3023    5.9169   -8.4268   H         1 RES1   0.0000
   324 H206      5.9815    6.8598   -7.0033   H         1 RES1   0.0000
   325 H207      5.0462    5.7388   -6.0254   H         1 RES1   0.0000
   326 H208      4.6053    8.7628   -6.0854   H         1 RES1   0.0000
   327 H209      5.5792    7.9341   -4.8766   H         1 RES1   0.0000
   328 H210      3.8452    7.6316   -4.9648   H         1 RES1   0.0000
   329 C106      6.4591   -1.5555    9.1470   C.3       1 RES1   0.0000
   330 C107      5.1215   -1.2490    9.8109   C.3       1 RES1   0.0000
   331 C108      4.7250    0.2321    9.7633   C.3       1 RES1   0.0000
   332 C109      4.7893    0.8411    8.3553   C.3       1 RES1   0.0000
   333 C110      3.9147    2.0912    8.1687   C.3       1 RES1   0.0000
   334 C111      3.7353    2.5157    6.6939   C.3       1 RES1   0.0000
   335 C112      2.5608    1.8385    5.9813   C.3       1 RES1   0.0000
   336 C113      2.1423    2.3868    4.6046   C.3       1 RES1   0.0000
   337 N7        2.9591    1.9846    3.4614   N.am      1 RES1   0.0000
   338 C114      4.1934    2.7450    3.3291   C.3       1 RES1   0.0000
   339 C115      4.0187    3.9665    2.4176   C.3       1 RES1   0.0000
   340 C116      5.3588    4.4544    1.8737   C.3       1 RES1   0.0000
   341 C117      5.2063    5.7095    1.0167   C.3       1 RES1   0.0000
   342 C118      6.5024    6.1107    0.3124   C.3       1 RES1   0.0000
   343 C119      7.0392    5.0158   -0.6170   C.3       1 RES1   0.0000
   344 C120      7.8245    5.5521   -1.8158   C.3       1 RES1   0.0000
   345 C121      6.9245    6.1770   -2.8765   C.3       1 RES1   0.0000
   346 C122      2.4696    1.2387    2.4611   C.2       1 RES1   0.0000
   347 O7        1.3198    0.7626    2.4495   O.2       1 RES1   0.0000
   348 C123      3.3397    0.9770    1.2431   C.3       1 RES1   0.0000
   349 C124      3.3850   -0.5203    0.9281   C.2       1 RES1   0.0000
   350 O8        2.3104   -1.0563    0.5989   O.2       1 RES1   0.0000
   351 N8        4.5582   -1.1519    1.0007   N.am      1 RES1   0.0000
   352 C125      4.7616   -2.5574    0.6198   C.3       1 RES1   0.0000
   353 C126      3.7088   -3.5932    0.9910   C.3       1 RES1   0.0000
   354 C127      3.6564   -3.8810    2.4903   C.3       1 RES1   0.0000
   355 C128      2.8866   -5.1755    2.7788   C.3       1 RES1   0.0000
   356 C129      2.1123   -5.1857    4.1001   C.3       1 RES1   0.0000
   357 C130      1.2632   -3.9376    4.3649   C.3       1 RES1   0.0000
   358 C131      0.3804   -3.4571    3.2102   C.3       1 RES1   0.0000
   359 C132      0.2057   -1.9397    3.2539   C.3       1 RES1   0.0000
   360 C133      5.8342   -0.4826    1.2657   C.3       1 RES1   0.0000
   361 C134      6.1704   -0.3857    2.7589   C.3       1 RES1   0.0000
   362 C135      7.3083    0.6102    3.0027   C.3       1 RES1   0.0000
   363 C136      7.4718    0.9892    4.4749   C.3       1 RES1   0.0000
   364 C137      8.4302    2.1694    4.6388   C.3       1 RES1   0.0000
   365 C138      8.7063    2.5445    6.0970   C.3       1 RES1   0.0000
   366 C139      7.5251    3.1446    6.8620   C.3       1 RES1   0.0000
   367 C140      7.0496    4.4892    6.3242   C.3       1 RES1   0.0000
   368 H211      6.7024   -2.6079    9.2738   H         1 RES1   0.0000
   369 H212      7.2536   -0.9680    9.5991   H         1 RES1   0.0000
   370 H213      6.4299   -1.3410    8.0800   H         1 RES1   0.0000
   371 H214      5.1686   -1.5548   10.8574   H         1 RES1   0.0000
   372 H215      4.3405   -1.8499    9.3413   H         1 RES1   0.0000
   373 H216      5.3825    0.7953   10.4260   H         1 RES1   0.0000
   374 H217      3.7128    0.3203   10.1646   H         1 RES1   0.0000
   375 H218      4.4978    0.0828    7.6307   H         1 RES1   0.0000
   376 H219      5.8282    1.1038    8.1519   H         1 RES1   0.0000
   377 H220      4.3849    2.9213    8.6975   H         1 RES1   0.0000
   378 H221      2.9384    1.9328    8.6329   H         1 RES1   0.0000
   379 H222      4.6727    2.3076    6.1779   H         1 RES1   0.0000
   380 H223      3.5679    3.5935    6.6676   H         1 RES1   0.0000
   381 H224      1.6822    1.9610    6.6189   H         1 RES1   0.0000
   382 H225      2.7521    0.7779    5.8813   H         1 RES1   0.0000
   383 H226      2.1166    3.4793    4.6275   H         1 RES1   0.0000
   384 H227      1.1313    2.0349    4.4163   H         1 RES1   0.0000
   385 H228      4.9994    2.1107    2.9690   H         1 RES1   0.0000
   386 H229      4.4795    3.0845    4.3208   H         1 RES1   0.0000
   387 H230      3.5510    4.7716    2.9832   H         1 RES1   0.0000
   388 H231      3.3458    3.7221    1.5903   H         1 RES1   0.0000
   389 H232      5.8101    3.6591    1.2774   H         1 RES1   0.0000
   390 H233      6.0302    4.6661    2.7069   H         1 RES1   0.0000
   391 H234      4.8722    6.5336    1.6486   H         1 RES1   0.0000
   392 H235      4.4290    5.5406    0.2659   H         1 RES1   0.0000
   393 H236      7.2596    6.3600    1.0564   H         1 RES1   0.0000
   394 H237      6.3047    7.0168   -0.2596   H         1 RES1   0.0000
   395 H238      6.2079    4.4184   -1.0009   H         1 RES1   0.0000
   396 H239      7.6874    4.3462   -0.0485   H         1 RES1   0.0000
   397 H240      8.3730    4.7233   -2.2700   H         1 RES1   0.0000
   398 H241      8.5562    6.2864   -1.4777   H         1 RES1   0.0000
   399 H242      6.1875    5.4560   -3.2300   H         1 RES1   0.0000
   400 H243      7.5144    6.4966   -3.7312   H         1 RES1   0.0000
   401 H244      6.3926    7.0415   -2.4866   H         1 RES1   0.0000
   402 H245      4.3089    1.4434    1.3013   H         1 RES1   0.0000
   403 H246      2.7699    1.3932    0.4024   H         1 RES1   0.0000
   404 H247      5.6861   -2.8677    1.1078   H         1 RES1   0.0000
   405 H248      4.9244   -2.5768   -0.4612   H         1 RES1   0.0000
   406 H249      4.0021   -4.5041    0.4642   H         1 RES1   0.0000
   407 H250      2.7251   -3.2866    0.6368   H         1 RES1   0.0000
   408 H251      3.1799   -3.0340    2.9745   H         1 RES1   0.0000
   409 H252      4.6668   -3.9697    2.8917   H         1 RES1   0.0000
   410 H253      3.5785   -6.0189    2.7888   H         1 RES1   0.0000
   411 H254      2.1955   -5.3578    1.9589   H         1 RES1   0.0000
   412 H255      2.8246   -5.2689    4.9244   H         1 RES1   0.0000
   413 H256      1.4830   -6.0790    4.1249   H         1 RES1   0.0000
   414 H257      1.9380   -3.1248    4.6059   H         1 RES1   0.0000
   415 H258      0.6517   -4.1284    5.2494   H         1 RES1   0.0000
   416 H259     -0.5907   -3.9521    3.2620   H         1 RES1   0.0000
   417 H260      0.8490   -3.7003    2.2597   H         1 RES1   0.0000
   418 H261     -0.3460   -1.6331    4.1409   H         1 RES1   0.0000
   419 H262     -0.3137   -1.5610    2.3565   H         1 RES1   0.0000
   420 H263      1.1847   -1.4643    3.2787   H         1 RES1   0.0000
   421 H264      5.8497    0.5092    0.8100   H         1 RES1   0.0000
   422 H265      6.6169   -1.0495    0.7594   H         1 RES1   0.0000
   423 H266      6.4573   -1.3679    3.1355   H         1 RES1   0.0000
   424 H267      5.2791   -0.0775    3.3091   H         1 RES1   0.0000
   425 H268      7.1197    1.5225    2.4288   H         1 RES1   0.0000
   426 H269      8.2444    0.1938    2.6311   H         1 RES1   0.0000
   427 H270      7.8522    0.1345    5.0342   H         1 RES1   0.0000
   428 H271      6.4949    1.2447    4.8895   H         1 RES1   0.0000
   429 H272      8.0370    3.0355    4.1025   H         1 RES1   0.0000
   430 H273      9.3831    1.9069    4.1752   H         1 RES1   0.0000
   431 H274      9.5275    3.2628    6.1164   H         1 RES1   0.0000
   432 H275      9.0396    1.6489    6.6265   H         1 RES1   0.0000
   433 H276      7.8314    3.2789    7.9014   H         1 RES1   0.0000
   434 H277      6.6963    2.4377    6.8601   H         1 RES1   0.0000
   435 H278      7.8663    5.2060    6.3311   H         1 RES1   0.0000
   436 H279      6.2486    4.8802    6.9486   H         1 RES1   0.0000
   437 H280      6.6750    4.3992    5.3060   H         1 RES1   0.0000
   438 O9        0.9657   -1.3184   -1.7648   O.3       1 RES1   0.0000
   439 H281      1.0480   -1.1787   -2.7190   H         1 RES1   0.0000
   440 H282      0.8068   -2.2637   -1.6227   H         1 RES1   0.0000
@<TRIPOS>BOND
     1     1    20    1
     2     1    23    1
     3     1   129    1
     4     1   132    1
     5     1   238    1
     6     1   241    1
     7     1   347    1
     8     1   350    1
     9     1   438    1
    10     2     3    1
    11     2    41    1
    12     2    42    1
    13     2    43    1
    14     3     4    1
    15     3    44    1
    16     3    45    1
    17     4     5    1
    18     4    46    1
    19     4    47    1
    20     5     6    1
    21     5    48    1
    22     5    49    1
    23     6     7    1
    24     6    50    1
    25     6    51    1
    26     7     8    1
    27     7    52    1
    28     7    53    1
    29     8     9    1
    30     8    54    1
    31     8    55    1
    32     9    10    1
    33     9    56    1
    34     9    57    1
    35    10    11    1
    36    10    19    1
    37    11    12    1
    38    11    58    1
    39    11    59    1
    40    12    13    1
    41    12    60    1
    42    12    61    1
    43    13    14    1
    44    13    62    1
    45    13    63    1
    46    14    15    1
    47    14    64    1
    48    14    65    1
    49    15    16    1
    50    15    66    1
    51    15    67    1
    52    16    17    1
    53    16    68    1
    54    16    69    1
    55    17    18    1
    56    17    70    1
    57    17    71    1
    58    18    72    1
    59    18    73    1
    60    18    74    1
    61    19    20    2
    62    19    21    1
    63    21    22    1
    64    21    75    1
    65    21    76    1
    66    22    23    2
    67    22    24    1
    68    24    25    1
    69    24    33    1
    70    25    26    1
    71    25    77    1
    72    25    78    1
    73    26    27    1
    74    26    79    1
    75    26    80    1
    76    27    28    1
    77    27    81    1
    78    27    82    1
    79    28    29    1
    80    28    83    1
    81    28    84    1
    82    29    30    1
    83    29    85    1
    84    29    86    1
    85    30    31    1
    86    30    87    1
    87    30    88    1
    88    31    32    1
    89    31    89    1
    90    31    90    1
    91    32    91    1
    92    32    92    1
    93    32    93    1
    94    33    34    1
    95    33    94    1
    96    33    95    1
    97    34    35    1
    98    34    96    1
    99    34    97    1
   100    35    36    1
   101    35    98    1
   102    35    99    1
   103    36    37    1
   104    36   100    1
   105    36   101    1
   106    37    38    1
   107    37   102    1
   108    37   103    1
   109    38    39    1
   110    38   104    1
   111    38   105    1
   112    39    40    1
   113    39   106    1
   114    39   107    1
   115    40   108    1
   116    40   109    1
   117    40   110    1
   118   111   112    1
   119   111   150    1
   120   111   151    1
   121   111   152    1
   122   112   113    1
   123   112   153    1
   124   112   154    1
   125   113   114    1
   126   113   155    1
   127   113   156    1
   128   114   115    1
   129   114   157    1
   130   114   158    1
   131   115   116    1
   132   115   159    1
   133   115   160    1
   134   116   117    1
   135   116   161    1
   136   116   162    1
   137   117   118    1
   138   117   163    1
   139   117   164    1
   140   118   119    1
   141   118   165    1
   142   118   166    1
   143   119   120    1
   144   119   128    1
   145   120   121    1
   146   120   167    1
   147   120   168    1
   148   121   122    1
   149   121   169    1
   150   121   170    1
   151   122   123    1
   152   122   171    1
   153   122   172    1
   154   123   124    1
   155   123   173    1
   156   123   174    1
   157   124   125    1
   158   124   175    1
   159   124   176    1
   160   125   126    1
   161   125   177    1
   162   125   178    1
   163   126   127    1
   164   126   179    1
   165   126   180    1
   166   127   181    1
   167   127   182    1
   168   127   183    1
   169   128   129    2
   170   128   130    1
   171   130   131    1
   172   130   184    1
   173   130   185    1
   174   131   132    2
   175   131   133    1
   176   133   134    1
   177   133   142    1
   178   134   135    1
   179   134   186    1
   180   134   187    1
   181   135   136    1
   182   135   188    1
   183   135   189    1
   184   136   137    1
   185   136   190    1
   186   136   191    1
   187   137   138    1
   188   137   192    1
   189   137   193    1
   190   138   139    1
   191   138   194    1
   192   138   195    1
   193   139   140    1
   194   139   196    1
   195   139   197    1
   196   140   141    1
   197   140   198    1
   198   140   199    1
   199   141   200    1
   200   141   201    1
   201   141   202    1
   202   142   143    1
   203   142   203    1
   204   142   204    1
   205   143   144    1
   206   143   205    1
   207   143   206    1
   208   144   145    1
   209   144   207    1
   210   144   208    1
   211   145   146    1
   212   145   209    1
   213   145   210    1
   214   146   147    1
   215   146   211    1
   216   146   212    1
   217   147   148    1
   218   147   213    1
   219   147   214    1
   220   148   149    1
   221   148   215    1
   222   148   216    1
   223   149   217    1
   224   149   218    1
   225   149   219    1
   226   220   221    1
   227   220   259    1
   228   220   260    1
   229   220   261    1
   230   221   222    1
   231   221   262    1
   232   221   263    1
   233   222   223    1
   234   222   264    1
   235   222   265    1
   236   223   224    1
   237   223   266    1
   238   223   267    1
   239   224   225    1
   240   224   268    1
   241   224   269    1
   242   225   226    1
   243   225   270    1
   244   225   271    1
   245   226   227    1
   246   226   272    1
   247   226   273    1
   248   227   228    1
   249   227   274    1
   250   227   275    1
   251   228   229    1
   252   228   237    1
   253   229   230    1
   254   229   276    1
   255   229   277    1
   256   230   231    1
   257   230   278    1
   258   230   279    1
   259   231   232    1
   260   231   280    1
   261   231   281    1
   262   232   233    1
   263   232   282    1
   264   232   283    1
   265   233   234    1
   266   233   284    1
   267   233   285    1
   268   234   235    1
   269   234   286    1
   270   234   287    1
   271   235   236    1
   272   235   288    1
   273   235   289    1
   274   236   290    1
   275   236   291    1
   276   236   292    1
   277   237   238    2
   278   237   239    1
   279   239   240    1
   280   239   293    1
   281   239   294    1
   282   240   241    2
   283   240   242    1
   284   242   243    1
   285   242   251    1
   286   243   244    1
   287   243   295    1
   288   243   296    1
   289   244   245    1
   290   244   297    1
   291   244   298    1
   292   245   246    1
   293   245   299    1
   294   245   300    1
   295   246   247    1
   296   246   301    1
   297   246   302    1
   298   247   248    1
   299   247   303    1
   300   247   304    1
   301   248   249    1
   302   248   305    1
   303   248   306    1
   304   249   250    1
   305   249   307    1
   306   249   308    1
   307   250   309    1
   308   250   310    1
   309   250   311    1
   310   251   252    1
   311   251   312    1
   312   251   313    1
   313   252   253    1
   314   252   314    1
   315   252   315    1
   316   253   254    1
   317   253   316    1
   318   253   317    1
   319   254   255    1
   320   254   318    1
   321   254   319    1
   322   255   256    1
   323   255   320    1
   324   255   321    1
   325   256   257    1
   326   256   322    1
   327   256   323    1
   328   257   258    1
   329   257   324    1
   330   257   325    1
   331   258   326    1
   332   258   327    1
   333   258   328    1
   334   329   330    1
   335   329   368    1
   336   329   369    1
   337   329   370    1
   338   330   331    1
   339   330   371    1
   340   330   372    1
   341   331   332    1
   342   331   373    1
   343   331   374    1
   344   332   333    1
   345   332   375    1
   346   332   376    1
   347   333   334    1
   348   333   377    1
   349   333   378    1
   350   334   335    1
   351   334   379    1
   352   334   380    1
   353   335   336    1
   354   335   381    1
   355   335   382    1
   356   336   337    1
   357   336   383    1
   358   336   384    1
   359   337   338    1
   360   337   346    1
   361   338   339    1
   362   338   385    1
   363   338   386    1
   364   339   340    1
   365   339   387    1
   366   339   388    1
   367   340   341    1
   368   340   389    1
   369   340   390    1
   370   341   342    1
   371   341   391    1
   372   341   392    1
   373   342   343    1
   374   342   393    1
   375   342   394    1
   376   343   344    1
   377   343   395    1
   378   343   396    1
   379   344   345    1
   380   344   397    1
   381   344   398    1
   382   345   399    1
   383   345   400    1
   384   345   401    1
   385   346   347    2
   386   346   348    1
   387   348   349    1
   388   348   402    1
   389   348   403    1
   390   349   350    2
   391   349   351    1
   392   351   352    1
   393   351   360    1
   394   352   353    1
   395   352   404    1
   396   352   405    1
   397   353   354    1
   398   353   406    1
   399   353   407    1
   400   354   355    1
   401   354   408    1
   402   354   409    1
   403   355   356    1
   404   355   410    1
   405   355   411    1
   406   356   357    1
   407   356   412    1
   408   356   413    1
   409   357   358    1
   410   357   414    1
   411   357   415    1
   412   358   359    1
   413   358   416    1
   414   358   417    1
   415   359   418    1
   416   359   419    1
   417   359   420    1
   418   360   361    1
   419   360   421    1
   420   360   422    1
   421   361   362    1
   422   361   423    1
   423   361   424    1
   424   362   363    1
   425   362   425    1
   426   362   426    1
   427   363   364    1
   428   363   427    1
   429   363   428    1
   430   364   365    1
   431   364   429    1
   432   364   430    1
   433   365   366    1
   434   365   431    1
   435   365   432    1
   436   366   367    1
   437   366   433    1
   438   366   434    1
   439   367   435    1
   440   367   436    1
   441   367   437    1
   442   438   439    1
   443   438   440    1
@<TRIPOS>SUBSTRUCTURE
     1 RES1      440 GROUP             0 ****  ****    0  
