@<TRIPOS>MOLECULE
capped_square_antiprismatic_0_nunpairedes_0_charge_2 Charge: 2 Unpaired_Electrons: 2 XTB_Unpaired_Electrons: 0 XTB_Charge: 2
    66    75     1     0     0
SMALL
NoCharges
****
Generated from Architector

@<TRIPOS>ATOM
     1 Pr1      -0.1359   -0.6722    0.8167   Pr        1 RES1   0.0000
     2 C1       -2.6585   -1.3971    4.6416   C.3       1 RES1   0.0000
     3 C2       -1.7399   -2.6099    4.6700   C.3       1 RES1   0.0000
     4 C3       -0.6345   -2.6118    3.6129   C.3       1 RES1   0.0000
     5 C4        0.4959   -1.5993    3.6742   C.ar      1 RES1   0.0000
     6 N1        1.1595   -1.5718    2.5246   N.ar      1 RES1   0.0000
     7 N2        1.9738   -0.5899    2.1601   N.ar      1 RES1   0.0000
     8 C5        1.9925    0.4588    3.0016   C.ar      1 RES1   0.0000
     9 C6        1.7232    1.7980    2.3944   C.ar      1 RES1   0.0000
    10 C7        2.2068    3.0864    2.4993   C.ar      1 RES1   0.0000
    11 C8        1.3514    4.1033    2.0838   C.ar      1 RES1   0.0000
    12 C9        0.0268    3.8577    1.7181   C.ar      1 RES1   0.0000
    13 C10      -0.3903    2.5302    1.6667   C.ar      1 RES1   0.0000
    14 C11      -1.7083    1.8587    1.5776   C.ar      1 RES1   0.0000
    15 N3       -1.6487    0.5907    2.0929   N.ar      1 RES1   0.0000
    16 N4       -2.3878   -0.2905    1.4124   N.ar      1 RES1   0.0000
    17 C12      -3.3300    0.0620    0.5712   C.ar      1 RES1   0.0000
    18 C13      -3.7792   -0.9185   -0.4579   C.3       1 RES1   0.0000
    19 C14      -3.0270   -2.2567   -0.3746   C.3       1 RES1   0.0000
    20 C15      -3.4818   -3.0316    0.8661   C.3       1 RES1   0.0000
    21 C16      -3.8047    1.4160    0.7790   C.ar      1 RES1   0.0000
    22 C17      -5.2359    1.7443    0.8928   C.3       1 RES1   0.0000
    23 C18      -5.7575    1.1654    2.2424   C.3       1 RES1   0.0000
    24 C19      -6.0462   -0.3284    2.2409   C.3       1 RES1   0.0000
    25 N5       -2.8530    2.2568    1.0926   N.ar      1 RES1   0.0000
    26 N6        0.5112    1.5503    1.8812   N.ar      1 RES1   0.0000
    27 N7        1.6373    0.3387    4.2645   N.ar      1 RES1   0.0000
    28 C20       0.9599   -0.7010    4.7055   C.ar      1 RES1   0.0000
    29 C21       0.7107   -0.7943    6.1648   C.3       1 RES1   0.0000
    30 C22       0.5425    0.5839    6.8396   C.3       1 RES1   0.0000
    31 C23      -0.8141    1.1991    6.5172   C.3       1 RES1   0.0000
    32 H1       -3.2843   -1.4105    5.5294   H         1 RES1   0.0000
    33 H2       -3.3222   -1.4151    3.7807   H         1 RES1   0.0000
    34 H3       -2.0975   -0.4680    4.6117   H         1 RES1   0.0000
    35 H4       -2.3498   -3.5009    4.5168   H         1 RES1   0.0000
    36 H5       -1.2950   -2.7192    5.6570   H         1 RES1   0.0000
    37 H6       -1.1003   -2.4866    2.5960   H         1 RES1   0.0000
    38 H7       -0.1792   -3.6106    3.6138   H         1 RES1   0.0000
    39 H8        3.1867    3.3061    2.8942   H         1 RES1   0.0000
    40 H9        1.7115    5.1183    2.0964   H         1 RES1   0.0000
    41 H10      -0.6272    4.6860    1.5034   H         1 RES1   0.0000
    42 H11      -3.6201   -0.4454   -1.4328   H         1 RES1   0.0000
    43 H12      -4.8488   -1.1296   -0.3672   H         1 RES1   0.0000
    44 H13      -1.8989   -2.0962   -0.3755   H         1 RES1   0.0000
    45 H14      -3.2590   -2.8518   -1.2616   H         1 RES1   0.0000
    46 H15      -3.4270   -2.4110    1.7581   H         1 RES1   0.0000
    47 H16      -2.9016   -3.9356    1.0356   H         1 RES1   0.0000
    48 H17      -4.5206   -3.3241    0.7268   H         1 RES1   0.0000
    49 H18      -5.8130    1.3311    0.0625   H         1 RES1   0.0000
    50 H19      -5.3486    2.8268    0.9185   H         1 RES1   0.0000
    51 H20      -6.6842    1.6933    2.4605   H         1 RES1   0.0000
    52 H21      -5.0355    1.4010    3.0297   H         1 RES1   0.0000
    53 H22      -6.4717   -0.5940    3.2023   H         1 RES1   0.0000
    54 H23      -5.1476   -0.9239    2.1044   H         1 RES1   0.0000
    55 H24      -6.7723   -0.5960    1.4812   H         1 RES1   0.0000
    56 H25       1.5736   -1.2937    6.6123   H         1 RES1   0.0000
    57 H26      -0.1682   -1.4001    6.3764   H         1 RES1   0.0000
    58 H27       1.3478    1.2422    6.5201   H         1 RES1   0.0000
    59 H28       0.6173    0.4508    7.9173   H         1 RES1   0.0000
    60 H29      -0.9356    1.3430    5.4422   H         1 RES1   0.0000
    61 H30      -0.9226    2.1612    7.0135   H         1 RES1   0.0000
    62 H31      -1.6104    0.5541    6.8853   H         1 RES1   0.0000
    63 N8        0.3268    0.8439   -0.8583   N.3       1 RES1   0.0000
    64 O1        0.7606    1.9408   -0.9370   O.2       1 RES1   0.0000
    65 O2        1.0401   -0.1627   -0.8167   O.co2     1 RES1   0.0000
    66 O3       -0.8984    0.6308   -0.7122   O.co2     1 RES1   0.0000
@<TRIPOS>BOND
     1     1     6    1
     2     1     7    1
     3     1    15    1
     4     1    16    1
     5     1    25    1
     6     1    26    1
     7     1    27    1
     8     1    65    1
     9     1    66    1
    10     2     3    1
    11     2    32    1
    12     2    33    1
    13     2    34    1
    14     3     4    1
    15     3    35    1
    16     3    36    1
    17     4     5    1
    18     4    37    1
    19     4    38    1
    20     5     6    1
    21     5    28    2
    22     6     7    2
    23     7     8    1
    24     8     9    1
    25     8    27    2
    26     9    10    1
    27     9    26    2
    28    10    11    2
    29    10    39    1
    30    11    12    1
    31    11    40    1
    32    12    13    2
    33    12    41    1
    34    13    14    1
    35    13    26    1
    36    14    15    1
    37    14    25    2
    38    15    16    2
    39    16    17    1
    40    17    18    1
    41    17    21    2
    42    18    19    1
    43    18    42    1
    44    18    43    1
    45    19    20    1
    46    19    44    1
    47    19    45    1
    48    20    46    1
    49    20    47    1
    50    20    48    1
    51    21    22    1
    52    21    25    1
    53    22    23    1
    54    22    49    1
    55    22    50    1
    56    23    24    1
    57    23    51    1
    58    23    52    1
    59    24    53    1
    60    24    54    1
    61    24    55    1
    62    27    28    1
    63    28    29    1
    64    29    30    1
    65    29    56    1
    66    29    57    1
    67    30    31    1
    68    30    58    1
    69    30    59    1
    70    31    60    1
    71    31    61    1
    72    31    62    1
    73    63    64    2
    74    63    65    1
    75    63    66    1
@<TRIPOS>SUBSTRUCTURE
     1 RES1       66 GROUP             0 ****  ****    0  
