@<TRIPOS>MOLECULE
tri_tri_mer_capped_0_nunpairedes_0_charge_3 Charge: 3 Unpaired_Electrons: 2 XTB_Unpaired_Electrons: 0 XTB_Charge: 3
    50    57     1     0     0
SMALL
NoCharges
****
Generated from Architector

@<TRIPOS>ATOM
     1 Pr1       0.1672   -0.1183   -0.0274   Pr        1 RES1   0.0000
     2 O1        1.9697    1.0868    0.6078   O.2       1 RES1   0.0000
     3 C1        2.8967    1.5608   -0.0444   C.2       1 RES1   0.0000
     4 O2        3.8012    2.2808    0.5274   O.2       1 RES1   0.0000
     5 C2        2.9561    1.2536   -1.5507   C.3       1 RES1   0.0000
     6 N1        1.6060    0.8827   -2.0475   N.4       1 RES1   0.0000
     7 C3        0.7853    2.0989   -2.3544   C.3       1 RES1   0.0000
     8 C4       -0.5188    1.9676   -1.5658   C.2       1 RES1   0.0000
     9 O3       -0.5031    1.8936   -0.3532   O.2       1 RES1   0.0000
    10 O4       -1.6588    1.7335   -2.1817   O.2       1 RES1   0.0000
    11 C5        1.7071   -0.0457   -3.2198   C.3       1 RES1   0.0000
    12 C6        2.1732    0.6500   -4.5326   C.3       1 RES1   0.0000
    13 C7        1.0830    0.7712   -5.6012   C.3       1 RES1   0.0000
    14 C8        0.4657   -0.5828   -5.9650   C.3       1 RES1   0.0000
    15 C9        0.6063   -1.5704   -4.8029   C.3       1 RES1   0.0000
    16 C10       0.3961   -0.8077   -3.4831   C.3       1 RES1   0.0000
    17 N2       -0.0765   -1.6516   -2.3285   N.4       1 RES1   0.0000
    18 C11      -1.4809   -2.0897   -2.5719   C.3       1 RES1   0.0000
    19 C12      -2.3077   -1.8645   -1.3076   C.2       1 RES1   0.0000
    20 O5       -1.8118   -1.1850   -0.4095   O.2       1 RES1   0.0000
    21 O6       -3.5131   -2.3043   -1.2096   O.2       1 RES1   0.0000
    22 C13       0.7825   -2.8472   -2.1050   C.3       1 RES1   0.0000
    23 C14       1.9434   -2.5120   -1.1829   C.2       1 RES1   0.0000
    24 O7        1.7813   -1.6434   -0.3238   O.2       1 RES1   0.0000
    25 O8        3.0777   -3.1225   -1.2932   O.3       1 RES1   0.0000
    26 H1        4.5641    2.6314    0.0323   H         1 RES1   0.0000
    27 H2        3.6481    0.4051   -1.6553   H         1 RES1   0.0000
    28 H3        3.3884    2.0839   -2.1231   H         1 RES1   0.0000
    29 H4        0.6054    2.1887   -3.4289   H         1 RES1   0.0000
    30 H5        1.2946    3.0130   -2.0255   H         1 RES1   0.0000
    31 H6       -1.7875    2.1187   -3.0670   H         1 RES1   0.0000
    32 H7        2.4597   -0.7873   -2.9329   H         1 RES1   0.0000
    33 H8        3.0000    0.0868   -4.9645   H         1 RES1   0.0000
    34 H9        2.5589    1.6462   -4.3084   H         1 RES1   0.0000
    35 H10       1.5214    1.2224   -6.4880   H         1 RES1   0.0000
    36 H11       0.2999    1.4489   -5.2659   H         1 RES1   0.0000
    37 H12       0.9490   -0.9933   -6.8454   H         1 RES1   0.0000
    38 H13      -0.5832   -0.4580   -6.2279   H         1 RES1   0.0000
    39 H14       1.6032   -2.0078   -4.8300   H         1 RES1   0.0000
    40 H15      -0.1061   -2.3810   -4.9302   H         1 RES1   0.0000
    41 H16      -0.3984   -0.0729   -3.6449   H         1 RES1   0.0000
    42 H17      -1.5383   -3.1339   -2.9052   H         1 RES1   0.0000
    43 H18      -1.9582   -1.4773   -3.3498   H         1 RES1   0.0000
    44 H19      -3.9334   -2.7971   -1.9377   H         1 RES1   0.0000
    45 H20       1.1120   -3.2904   -3.0514   H         1 RES1   0.0000
    46 H21       0.2242   -3.6188   -1.5574   H         1 RES1   0.0000
    47 H22       3.1683   -3.8851   -1.8938   H         1 RES1   0.0000
    48 O9       -1.0206    0.2204    1.9632   O.3       1 RES1   0.0000
    49 H23      -0.7064    0.7996    2.6806   H         1 RES1   0.0000
    50 H24      -1.9669    0.0896    2.1630   H         1 RES1   0.0000
@<TRIPOS>BOND
     1     1     2    1
     2     1     4    1
     3     1     6    1
     4     1     9    1
     5     1    10    1
     6     1    17    1
     7     1    20    1
     8     1    21    1
     9     1    48    1
    10     2     3    2
    11     3     4    1
    12     3     5    1
    13     4    26    1
    14     5     6    1
    15     5    27    1
    16     5    28    1
    17     6     7    1
    18     6    11    1
    19     7     8    1
    20     7    29    1
    21     7    30    1
    22     8     9    2
    23     8    10    1
    24    10    31    1
    25    11    12    1
    26    11    16    1
    27    11    32    1
    28    12    13    1
    29    12    33    1
    30    12    34    1
    31    13    14    1
    32    13    35    1
    33    13    36    1
    34    14    15    1
    35    14    37    1
    36    14    38    1
    37    15    16    1
    38    15    39    1
    39    15    40    1
    40    16    17    1
    41    16    41    1
    42    17    18    1
    43    17    22    1
    44    18    19    1
    45    18    42    1
    46    18    43    1
    47    19    20    2
    48    19    21    1
    49    21    44    1
    50    22    23    1
    51    22    45    1
    52    22    46    1
    53    23    24    2
    54    23    25    1
    55    25    47    1
    56    48    49    1
    57    48    50    1
@<TRIPOS>SUBSTRUCTURE
     1 RES1       50 GROUP             0 ****  ****    0  
