@<TRIPOS>MOLECULE
cn9_YICLED_0_nunpairedes_0_charge_3 Charge: 3 Unpaired_Electrons: 2 XTB_Unpaired_Electrons: 0 XTB_Charge: 3
   130   141     1     0     0
SMALL
NoCharges
****
Generated from Architector

@<TRIPOS>ATOM
     1 Pr1       0.2918    0.2031   -0.3777   Pr        1 RES1   0.0000
     2 O1        0.6547    1.4883    1.6579   O.2       1 RES1   0.0000
     3 C1       -0.2485    1.8171    2.4537   C.2       1 RES1   0.0000
     4 C2       -1.5842    1.0483    2.3962   C.3       1 RES1   0.0000
     5 O2       -1.3890   -0.0202    1.4768   O.3       1 RES1   0.0000
     6 C3       -2.1311   -1.2040    1.7455   C.3       1 RES1   0.0000
     7 C4       -1.3685   -2.3504    1.0650   C.2       1 RES1   0.0000
     8 O3       -0.4103   -2.0402    0.3241   O.2       1 RES1   0.0000
     9 N1       -1.6893   -3.6066    1.3105   N.am      1 RES1   0.0000
    10 C5       -2.8568   -4.0921    2.0248   C.3       1 RES1   0.0000
    11 C6       -2.4519   -4.9116    3.2531   C.3       1 RES1   0.0000
    12 C7       -1.2853   -5.8591    2.9292   C.3       1 RES1   0.0000
    13 C8       -1.1109   -6.0087    1.4201   C.3       1 RES1   0.0000
    14 C9       -0.8149   -4.6548    0.7818   C.3       1 RES1   0.0000
    15 N2       -0.1160    2.7928    3.3383   N.am      1 RES1   0.0000
    16 C10       1.1888    3.3933    3.5956   C.3       1 RES1   0.0000
    17 C11       1.7603    2.7848    4.8812   C.3       1 RES1   0.0000
    18 C12       0.7972    3.0103    6.0476   C.3       1 RES1   0.0000
    19 C13      -0.5931    2.4845    5.6944   C.3       1 RES1   0.0000
    20 C14      -1.0638    3.1273    4.3880   C.3       1 RES1   0.0000
    21 H1       -1.8280    0.6572    3.3916   H         1 RES1   0.0000
    22 H2       -2.3897    1.7170    2.0529   H         1 RES1   0.0000
    23 H3       -2.1706   -1.3908    2.8249   H         1 RES1   0.0000
    24 H4       -3.1470   -1.1142    1.3367   H         1 RES1   0.0000
    25 H5       -3.5064   -3.2655    2.3009   H         1 RES1   0.0000
    26 H6       -3.4102   -4.7342    1.3357   H         1 RES1   0.0000
    27 H7       -2.1788   -4.2511    4.0744   H         1 RES1   0.0000
    28 H8       -3.3190   -5.4849    3.5730   H         1 RES1   0.0000
    29 H9       -0.3572   -5.4777    3.3589   H         1 RES1   0.0000
    30 H10      -1.4569   -6.8413    3.3689   H         1 RES1   0.0000
    31 H11      -0.2749   -6.6754    1.2130   H         1 RES1   0.0000
    32 H12      -1.9945   -6.4688    0.9792   H         1 RES1   0.0000
    33 H13       0.2129   -4.3553    1.0072   H         1 RES1   0.0000
    34 H14      -0.9146   -4.7015   -0.3076   H         1 RES1   0.0000
    35 H15       1.8346    3.2164    2.7333   H         1 RES1   0.0000
    36 H16       1.0499    4.4692    3.7333   H         1 RES1   0.0000
    37 H17       1.9123    1.7124    4.7314   H         1 RES1   0.0000
    38 H18       2.7267    3.2407    5.0977   H         1 RES1   0.0000
    39 H19       1.1714    2.5030    6.9350   H         1 RES1   0.0000
    40 H20       0.7486    4.0728    6.2902   H         1 RES1   0.0000
    41 H21      -0.5559    1.3979    5.5791   H         1 RES1   0.0000
    42 H22      -1.2994    2.7204    6.4874   H         1 RES1   0.0000
    43 H23      -2.0739    2.8226    4.1202   H         1 RES1   0.0000
    44 H24      -1.0534    4.2151    4.5062   H         1 RES1   0.0000
    45 O4       -0.1268    0.7510   -2.5685   O.2       1 RES1   0.0000
    46 C15      -0.7393   -0.0574   -3.2904   C.2       1 RES1   0.0000
    47 C16      -1.8977   -0.8275   -2.6211   C.3       1 RES1   0.0000
    48 O5       -2.1516   -0.2711   -1.3350   O.3       1 RES1   0.0000
    49 C17      -3.0209    0.8638   -1.3215   C.3       1 RES1   0.0000
    50 C18      -2.2881    2.1178   -0.8047   C.2       1 RES1   0.0000
    51 O6       -1.1148    2.0091   -0.4073   O.2       1 RES1   0.0000
    52 N3       -2.9221    3.2799   -0.8229   N.am      1 RES1   0.0000
    53 C19      -2.2298    4.4817   -0.3716   C.3       1 RES1   0.0000
    54 C20      -2.6513    4.8141    1.0594   C.3       1 RES1   0.0000
    55 C21      -4.1727    4.9329    1.1481   C.3       1 RES1   0.0000
    56 C22      -4.8501    3.6975    0.5575   C.3       1 RES1   0.0000
    57 C23      -4.3604    3.4687   -0.8758   C.3       1 RES1   0.0000
    58 N4       -0.3983   -0.2983   -4.5393   N.am      1 RES1   0.0000
    59 C24       0.7752    0.3572   -5.1073   C.3       1 RES1   0.0000
    60 C25       0.3484    1.3457   -6.1896   C.3       1 RES1   0.0000
    61 C26      -0.4580    0.6162   -7.2622   C.3       1 RES1   0.0000
    62 C27      -1.6400   -0.1051   -6.6186   C.3       1 RES1   0.0000
    63 C28      -1.1374   -1.0582   -5.5292   C.3       1 RES1   0.0000
    64 H25      -2.8152   -0.8466   -3.2192   H         1 RES1   0.0000
    65 H26      -1.5693   -1.8574   -2.4257   H         1 RES1   0.0000
    66 H27      -3.4198    1.0745   -2.3191   H         1 RES1   0.0000
    67 H28      -3.8519    0.6032   -0.6536   H         1 RES1   0.0000
    68 H29      -1.1545    4.3099   -0.4468   H         1 RES1   0.0000
    69 H30      -2.5134    5.2939   -1.0433   H         1 RES1   0.0000
    70 H31      -2.2915    4.0214    1.7198   H         1 RES1   0.0000
    71 H32      -2.1808    5.7474    1.3680   H         1 RES1   0.0000
    72 H33      -4.4730    5.0606    2.1873   H         1 RES1   0.0000
    73 H34      -4.4996    5.8209    0.6075   H         1 RES1   0.0000
    74 H35      -4.6111    2.8178    1.1619   H         1 RES1   0.0000
    75 H36      -5.9306    3.8236    0.5585   H         1 RES1   0.0000
    76 H37      -4.8505    2.6155   -1.3400   H         1 RES1   0.0000
    77 H38      -4.5628    4.3570   -1.4781   H         1 RES1   0.0000
    78 H39       1.3190    0.8434   -4.2947   H         1 RES1   0.0000
    79 H40       1.3984   -0.4240   -5.5518   H         1 RES1   0.0000
    80 H41      -0.2592    2.1311   -5.7374   H         1 RES1   0.0000
    81 H42       1.2325    1.8129   -6.6225   H         1 RES1   0.0000
    82 H43      -0.8127    1.3272   -8.0061   H         1 RES1   0.0000
    83 H44       0.1773   -0.1044   -7.7792   H         1 RES1   0.0000
    84 H45      -2.3189    0.6289   -6.1805   H         1 RES1   0.0000
    85 H46      -2.1947   -0.6770   -7.3604   H         1 RES1   0.0000
    86 H47      -1.9543   -1.6058   -5.0642   H         1 RES1   0.0000
    87 H48      -0.4460   -1.7773   -5.9769   H         1 RES1   0.0000
    88 O7        2.2285    1.1388   -0.9199   O.2       1 RES1   0.0000
    89 C29       3.1906    1.2770   -0.1411   C.2       1 RES1   0.0000
    90 C30       3.4081    0.1850    0.9224   C.3       1 RES1   0.0000
    91 O8        2.3931   -0.8093    0.8059   O.3       1 RES1   0.0000
    92 C31       2.7721   -2.0615    0.2455   C.3       1 RES1   0.0000
    93 C32       2.1183   -2.2867   -1.1301   C.2       1 RES1   0.0000
    94 O9        1.3257   -1.4369   -1.5817   O.2       1 RES1   0.0000
    95 N5        2.3828   -3.3887   -1.8090   N.am      1 RES1   0.0000
    96 C33       3.2083   -4.5095   -1.3962   C.3       1 RES1   0.0000
    97 C34       4.2549   -4.8465   -2.4630   C.3       1 RES1   0.0000
    98 C35       3.6385   -4.8789   -3.8697   C.3       1 RES1   0.0000
    99 C36       2.1160   -4.8347   -3.8011   C.3       1 RES1   0.0000
   100 C37       1.6842   -3.5605   -3.0868   C.3       1 RES1   0.0000
   101 N6        3.9624    2.3494   -0.1543   N.am      1 RES1   0.0000
   102 C38       3.7100    3.4159   -1.1169   C.3       1 RES1   0.0000
   103 C39       4.8123    3.4296   -2.1750   C.3       1 RES1   0.0000
   104 C40       6.1743    3.5805   -1.4999   C.3       1 RES1   0.0000
   105 C41       6.3604    2.4784   -0.4584   C.3       1 RES1   0.0000
   106 C42       5.2133    2.5304    0.5555   C.3       1 RES1   0.0000
   107 H49       4.4075   -0.2564    0.8644   H         1 RES1   0.0000
   108 H50       3.2787    0.6403    1.9131   H         1 RES1   0.0000
   109 H51       3.8602   -2.1500    0.1663   H         1 RES1   0.0000
   110 H52       2.4046   -2.8270    0.9423   H         1 RES1   0.0000
   111 H53       3.6972   -4.2952   -0.4490   H         1 RES1   0.0000
   112 H54       2.5447   -5.3673   -1.2504   H         1 RES1   0.0000
   113 H55       5.0671   -4.1208   -2.4279   H         1 RES1   0.0000
   114 H56       4.6746   -5.8169   -2.2065   H         1 RES1   0.0000
   115 H57       3.9784   -4.0189   -4.4460   H         1 RES1   0.0000
   116 H58       3.9522   -5.7701   -4.4070   H         1 RES1   0.0000
   117 H59       1.7015   -4.8207   -4.8085   H         1 RES1   0.0000
   118 H60       1.7212   -5.7227   -3.3070   H         1 RES1   0.0000
   119 H61       1.9152   -2.6907   -3.7116   H         1 RES1   0.0000
   120 H62       0.6053   -3.5457   -2.8877   H         1 RES1   0.0000
   121 H63       2.7237    3.2550   -1.5582   H         1 RES1   0.0000
   122 H64       3.7191    4.3598   -0.5644   H         1 RES1   0.0000
   123 H65       4.7750    2.4954   -2.7370   H         1 RES1   0.0000
   124 H66       4.6314    4.2446   -2.8757   H         1 RES1   0.0000
   125 H67       6.9646    3.5279   -2.2469   H         1 RES1   0.0000
   126 H68       6.2383    4.5572   -1.0181   H         1 RES1   0.0000
   127 H69       6.3640    1.5044   -0.9521   H         1 RES1   0.0000
   128 H70       7.3075    2.5917    0.0661   H         1 RES1   0.0000
   129 H71       5.3258    1.7819    1.3369   H         1 RES1   0.0000
   130 H72       5.1902    3.5195    1.0219   H         1 RES1   0.0000
@<TRIPOS>BOND
     1     1     2    1
     2     1     5    1
     3     1     8    1
     4     1    45    1
     5     1    48    1
     6     1    51    1
     7     1    88    1
     8     1    91    1
     9     1    94    1
    10     2     3    2
    11     3     4    1
    12     3    15    1
    13     4     5    1
    14     4    21    1
    15     4    22    1
    16     5     6    1
    17     6     7    1
    18     6    23    1
    19     6    24    1
    20     7     8    2
    21     7     9    1
    22     9    10    1
    23     9    14    1
    24    10    11    1
    25    10    25    1
    26    10    26    1
    27    11    12    1
    28    11    27    1
    29    11    28    1
    30    12    13    1
    31    12    29    1
    32    12    30    1
    33    13    14    1
    34    13    31    1
    35    13    32    1
    36    14    33    1
    37    14    34    1
    38    15    16    1
    39    15    20    1
    40    16    17    1
    41    16    35    1
    42    16    36    1
    43    17    18    1
    44    17    37    1
    45    17    38    1
    46    18    19    1
    47    18    39    1
    48    18    40    1
    49    19    20    1
    50    19    41    1
    51    19    42    1
    52    20    43    1
    53    20    44    1
    54    45    46    2
    55    46    47    1
    56    46    58    1
    57    47    48    1
    58    47    64    1
    59    47    65    1
    60    48    49    1
    61    49    50    1
    62    49    66    1
    63    49    67    1
    64    50    51    2
    65    50    52    1
    66    52    53    1
    67    52    57    1
    68    53    54    1
    69    53    68    1
    70    53    69    1
    71    54    55    1
    72    54    70    1
    73    54    71    1
    74    55    56    1
    75    55    72    1
    76    55    73    1
    77    56    57    1
    78    56    74    1
    79    56    75    1
    80    57    76    1
    81    57    77    1
    82    58    59    1
    83    58    63    1
    84    59    60    1
    85    59    78    1
    86    59    79    1
    87    60    61    1
    88    60    80    1
    89    60    81    1
    90    61    62    1
    91    61    82    1
    92    61    83    1
    93    62    63    1
    94    62    84    1
    95    62    85    1
    96    63    86    1
    97    63    87    1
    98    88    89    2
    99    89    90    1
   100    89   101    1
   101    90    91    1
   102    90   107    1
   103    90   108    1
   104    91    92    1
   105    92    93    1
   106    92   109    1
   107    92   110    1
   108    93    94    2
   109    93    95    1
   110    95    96    1
   111    95   100    1
   112    96    97    1
   113    96   111    1
   114    96   112    1
   115    97    98    1
   116    97   113    1
   117    97   114    1
   118    98    99    1
   119    98   115    1
   120    98   116    1
   121    99   100    1
   122    99   117    1
   123    99   118    1
   124   100   119    1
   125   100   120    1
   126   101   102    1
   127   101   106    1
   128   102   103    1
   129   102   121    1
   130   102   122    1
   131   103   104    1
   132   103   123    1
   133   103   124    1
   134   104   105    1
   135   104   125    1
   136   104   126    1
   137   105   106    1
   138   105   127    1
   139   105   128    1
   140   106   129    1
   141   106   130    1
@<TRIPOS>SUBSTRUCTURE
     1 RES1      130 GROUP             0 ****  ****    0  
