@<TRIPOS>MOLECULE
am_c3_9H2O_c0_0_nunpairedes_0_charge_3 Charge: 3 Unpaired_Electrons: 2 XTB_Unpaired_Electrons: 0 XTB_Charge: 3
   124   129     1     0     0
SMALL
NoCharges
****
Generated from Architector

@<TRIPOS>ATOM
     1 Pr1      -0.1164   -0.0928   -0.1037   Pr        1 RES1   0.0000
     2 C1       -2.5556    2.7600   -3.6979   C.3       1 RES1   0.0000
     3 C2       -1.4004    3.6138   -3.1880   C.3       1 RES1   0.0000
     4 N1       -1.4234    3.7795   -1.7300   N.am      1 RES1   0.0000
     5 C3       -1.6945    5.1226   -1.2297   C.3       1 RES1   0.0000
     6 C4       -3.1386    5.5432   -1.4581   C.3       1 RES1   0.0000
     7 C5       -1.2473    2.7139   -0.9633   C.2       1 RES1   0.0000
     8 O1       -0.9017    1.6084   -1.4130   O.2       1 RES1   0.0000
     9 C6       -1.4030    2.8622    0.5621   C.3       1 RES1   0.0000
    10 O2       -1.2885    1.5990    1.2033   O.3       1 RES1   0.0000
    11 C7       -2.4825    1.1001    1.7996   C.3       1 RES1   0.0000
    12 C8       -3.0896   -0.0241    0.9395   C.2       1 RES1   0.0000
    13 O3       -2.4083   -0.4750    0.0085   O.2       1 RES1   0.0000
    14 N2       -4.2948   -0.4878    1.2284   N.am      1 RES1   0.0000
    15 C9       -5.1077   -0.0428    2.3494   C.3       1 RES1   0.0000
    16 C10      -6.2779    0.8159    1.8898   C.3       1 RES1   0.0000
    17 C11      -4.8858   -1.4946    0.3413   C.3       1 RES1   0.0000
    18 C12      -5.2128   -0.9326   -1.0375   C.3       1 RES1   0.0000
    19 H1       -2.4855    2.7071   -4.7788   H         1 RES1   0.0000
    20 H2       -3.5169    3.1932   -3.4375   H         1 RES1   0.0000
    21 H3       -2.4921    1.7521   -3.2954   H         1 RES1   0.0000
    22 H4       -1.4532    4.6198   -3.6054   H         1 RES1   0.0000
    23 H5       -0.4524    3.1430   -3.4769   H         1 RES1   0.0000
    24 H6       -1.0215    5.8084   -1.7539   H         1 RES1   0.0000
    25 H7       -1.4437    5.1606   -0.1709   H         1 RES1   0.0000
    26 H8       -3.3724    5.5812   -2.5162   H         1 RES1   0.0000
    27 H9       -3.2777    6.5364   -1.0494   H         1 RES1   0.0000
    28 H10      -3.8299    4.8621   -0.9716   H         1 RES1   0.0000
    29 H11      -2.3466    3.3556    0.8080   H         1 RES1   0.0000
    30 H12      -0.5782    3.4728    0.9466   H         1 RES1   0.0000
    31 H13      -3.2064    1.9028    1.9522   H         1 RES1   0.0000
    32 H14      -2.1728    0.6968    2.7688   H         1 RES1   0.0000
    33 H15      -4.4718    0.4990    3.0480   H         1 RES1   0.0000
    34 H16      -5.4790   -0.9375    2.8577   H         1 RES1   0.0000
    35 H17      -5.9364    1.6875    1.3383   H         1 RES1   0.0000
    36 H18      -6.8305    1.1431    2.7615   H         1 RES1   0.0000
    37 H19      -6.9515    0.2469    1.2583   H         1 RES1   0.0000
    38 H20      -5.7888   -1.8450    0.8416   H         1 RES1   0.0000
    39 H21      -4.1798   -2.3274    0.2368   H         1 RES1   0.0000
    40 H22      -5.9298   -0.1200   -0.9739   H         1 RES1   0.0000
    41 H23      -5.6442   -1.7276   -1.6353   H         1 RES1   0.0000
    42 H24      -4.3115   -0.5758   -1.5290   H         1 RES1   0.0000
    43 C13       3.8534   -0.9575    3.5114   C.3       1 RES1   0.0000
    44 C14       2.8271   -0.0233    4.1427   C.3       1 RES1   0.0000
    45 N3        2.6697    1.2156    3.3735   N.am      1 RES1   0.0000
    46 C15       3.1916    2.4517    3.9555   C.3       1 RES1   0.0000
    47 C16       4.5761    2.8481    3.4606   C.3       1 RES1   0.0000
    48 C17       2.0762    1.1377    2.1878   C.2       1 RES1   0.0000
    49 O4        1.5354    0.1068    1.7534   O.2       1 RES1   0.0000
    50 C18       2.0462    2.3767    1.2787   C.3       1 RES1   0.0000
    51 O5        1.4090    2.0024    0.0623   O.3       1 RES1   0.0000
    52 C19       2.0456    2.4094   -1.1433   C.3       1 RES1   0.0000
    53 C20       2.1043    1.2003   -2.0946   C.2       1 RES1   0.0000
    54 O6        1.6131    0.1287   -1.7010   O.2       1 RES1   0.0000
    55 N4        2.6915    1.3339   -3.2780   N.am      1 RES1   0.0000
    56 C21       3.2261    2.5875   -3.8053   C.3       1 RES1   0.0000
    57 C22       4.6148    2.9427   -3.2889   C.3       1 RES1   0.0000
    58 C23       2.8437    0.1242   -4.0956   C.3       1 RES1   0.0000
    59 C24       3.8429   -0.8578   -3.4933   C.3       1 RES1   0.0000
    60 H25       3.9177   -1.8685    4.0970   H         1 RES1   0.0000
    61 H26       4.8391   -0.5035    3.4846   H         1 RES1   0.0000
    62 H27       3.5608   -1.2098    2.4964   H         1 RES1   0.0000
    63 H28       3.1488    0.2503    5.1473   H         1 RES1   0.0000
    64 H29       1.8542   -0.5255    4.2014   H         1 RES1   0.0000
    65 H30       3.2414    2.2890    5.0339   H         1 RES1   0.0000
    66 H31       2.4783    3.2602    3.7744   H         1 RES1   0.0000
    67 H32       5.3103    2.0786    3.6721   H         1 RES1   0.0000
    68 H33       4.8722    3.7524    3.9790   H         1 RES1   0.0000
    69 H34       4.5905    3.0590    2.3974   H         1 RES1   0.0000
    70 H35       3.0696    2.7221    1.1194   H         1 RES1   0.0000
    71 H36       1.4906    3.1940    1.7576   H         1 RES1   0.0000
    72 H37       3.0666    2.7545   -0.9684   H         1 RES1   0.0000
    73 H38       1.4803    3.2380   -1.5898   H         1 RES1   0.0000
    74 H39       2.5235    3.3970   -3.5893   H         1 RES1   0.0000
    75 H40       3.2781    2.4697   -4.8893   H         1 RES1   0.0000
    76 H41       4.6279    3.1045   -2.2170   H         1 RES1   0.0000
    77 H42       4.9254    3.8653   -3.7647   H         1 RES1   0.0000
    78 H43       5.3407    2.1746   -3.5329   H         1 RES1   0.0000
    79 H44       3.1870    0.4364   -5.0813   H         1 RES1   0.0000
    80 H45       1.8624   -0.3567   -4.1908   H         1 RES1   0.0000
    81 H46       4.8377   -0.4273   -3.4338   H         1 RES1   0.0000
    82 H47       3.8954   -1.7413   -4.1208   H         1 RES1   0.0000
    83 H48       3.5324   -1.1524   -2.4953   H         1 RES1   0.0000
    84 C25      -2.7643   -2.9507    3.2615   C.3       1 RES1   0.0000
    85 C26      -1.4613   -2.6191    3.9830   C.3       1 RES1   0.0000
    86 N5       -0.2765   -3.0181    3.2185   N.am      1 RES1   0.0000
    87 C27       0.5032   -4.1409    3.7238   C.3       1 RES1   0.0000
    88 C28      -0.0587   -5.4841    3.2807   C.3       1 RES1   0.0000
    89 C29      -0.0141   -2.3712    2.0925   C.2       1 RES1   0.0000
    90 O7       -0.6581   -1.3635    1.7477   O.2       1 RES1   0.0000
    91 C30       1.1267   -2.8598    1.1868   C.3       1 RES1   0.0000
    92 O8        1.1216   -2.1089   -0.0211   O.3       1 RES1   0.0000
    93 C31       1.0790   -2.8443   -1.2402   C.3       1 RES1   0.0000
    94 C32      -0.1054   -2.3568   -2.1026   C.2       1 RES1   0.0000
    95 O9       -0.7175   -1.3349   -1.7623   O.2       1 RES1   0.0000
    96 N6       -0.4414   -3.0197   -3.1945   N.am      1 RES1   0.0000
    97 C33       0.3122   -4.1378   -3.7288   C.3       1 RES1   0.0000
    98 C34      -0.3006   -5.4703   -3.3289   C.3       1 RES1   0.0000
    99 C35      -1.6770   -2.6268   -3.8795   C.3       1 RES1   0.0000
   100 C36      -2.9217   -2.9153   -3.0457   C.3       1 RES1   0.0000
   101 H49      -3.5929   -2.6031    3.8691   H         1 RES1   0.0000
   102 H50      -2.8780   -4.0200    3.1114   H         1 RES1   0.0000
   103 H51      -2.8041   -2.4534    2.2971   H         1 RES1   0.0000
   104 H52      -1.4183   -3.1488    4.9340   H         1 RES1   0.0000
   105 H53      -1.4110   -1.5389    4.1649   H         1 RES1   0.0000
   106 H54       0.4824   -4.0760    4.8144   H         1 RES1   0.0000
   107 H55       1.5384   -4.0218    3.4014   H         1 RES1   0.0000
   108 H56      -1.0716   -5.6190    3.6441   H         1 RES1   0.0000
   109 H57       0.5562   -6.2726    3.6962   H         1 RES1   0.0000
   110 H58      -0.0591   -5.5794    2.1992   H         1 RES1   0.0000
   111 H59       1.0222   -3.9303    1.0011   H         1 RES1   0.0000
   112 H60       2.0830   -2.6880    1.6954   H         1 RES1   0.0000
   113 H61       0.9901   -3.9181   -1.0622   H         1 RES1   0.0000
   114 H62       2.0125   -2.6488   -1.7825   H         1 RES1   0.0000
   115 H63       1.3427   -4.0504   -3.3837   H         1 RES1   0.0000
   116 H64       0.3086   -4.0296   -4.8155   H         1 RES1   0.0000
   117 H65      -0.3266   -5.5881   -2.2491   H         1 RES1   0.0000
   118 H66       0.2945   -6.2666   -3.7550   H         1 RES1   0.0000
   119 H67      -1.3110   -5.5561   -3.7134   H         1 RES1   0.0000
   120 H68      -1.7035   -3.1903   -4.8104   H         1 RES1   0.0000
   121 H69      -1.6372   -1.5528   -4.0960   H         1 RES1   0.0000
   122 H70      -3.0248   -3.9748   -2.8303   H         1 RES1   0.0000
   123 H71      -3.7925   -2.5943   -3.6078   H         1 RES1   0.0000
   124 H72      -2.8866   -2.3605   -2.1122   H         1 RES1   0.0000
@<TRIPOS>BOND
     1     1     8    1
     2     1    10    1
     3     1    13    1
     4     1    49    1
     5     1    51    1
     6     1    54    1
     7     1    90    1
     8     1    92    1
     9     1    95    1
    10     2     3    1
    11     2    19    1
    12     2    20    1
    13     2    21    1
    14     3     4    1
    15     3    22    1
    16     3    23    1
    17     4     5    1
    18     4     7    1
    19     5     6    1
    20     5    24    1
    21     5    25    1
    22     6    26    1
    23     6    27    1
    24     6    28    1
    25     7     8    2
    26     7     9    1
    27     9    10    1
    28     9    29    1
    29     9    30    1
    30    10    11    1
    31    11    12    1
    32    11    31    1
    33    11    32    1
    34    12    13    2
    35    12    14    1
    36    14    15    1
    37    14    17    1
    38    15    16    1
    39    15    33    1
    40    15    34    1
    41    16    35    1
    42    16    36    1
    43    16    37    1
    44    17    18    1
    45    17    38    1
    46    17    39    1
    47    18    40    1
    48    18    41    1
    49    18    42    1
    50    43    44    1
    51    43    60    1
    52    43    61    1
    53    43    62    1
    54    44    45    1
    55    44    63    1
    56    44    64    1
    57    45    46    1
    58    45    48    1
    59    46    47    1
    60    46    65    1
    61    46    66    1
    62    47    67    1
    63    47    68    1
    64    47    69    1
    65    48    49    2
    66    48    50    1
    67    50    51    1
    68    50    70    1
    69    50    71    1
    70    51    52    1
    71    52    53    1
    72    52    72    1
    73    52    73    1
    74    53    54    2
    75    53    55    1
    76    55    56    1
    77    55    58    1
    78    56    57    1
    79    56    74    1
    80    56    75    1
    81    57    76    1
    82    57    77    1
    83    57    78    1
    84    58    59    1
    85    58    79    1
    86    58    80    1
    87    59    81    1
    88    59    82    1
    89    59    83    1
    90    84    85    1
    91    84   101    1
    92    84   102    1
    93    84   103    1
    94    85    86    1
    95    85   104    1
    96    85   105    1
    97    86    87    1
    98    86    89    1
    99    87    88    1
   100    87   106    1
   101    87   107    1
   102    88   108    1
   103    88   109    1
   104    88   110    1
   105    89    90    2
   106    89    91    1
   107    91    92    1
   108    91   111    1
   109    91   112    1
   110    92    93    1
   111    93    94    1
   112    93   113    1
   113    93   114    1
   114    94    95    2
   115    94    96    1
   116    96    97    1
   117    96    99    1
   118    97    98    1
   119    97   115    1
   120    97   116    1
   121    98   117    1
   122    98   118    1
   123    98   119    1
   124    99   100    1
   125    99   120    1
   126    99   121    1
   127   100   122    1
   128   100   123    1
   129   100   124    1
@<TRIPOS>SUBSTRUCTURE
     1 RES1      124 GROUP             0 ****  ****    0  
