@<TRIPOS>MOLECULE
am_c3_9H2O_c0_0_nunpairedes_0_charge_3 Charge: 3 Unpaired_Electrons: 2 XTB_Unpaired_Electrons: 0 XTB_Charge: 3
   250   255     1     0     0
SMALL
NoCharges
****
Generated from Architector

@<TRIPOS>ATOM
     1 Pr1      -0.0865   -0.0176   -0.1829   Pr        1 RES1   0.0000
     2 C1        5.6014    5.3832   -0.3869   C.3       1 RES1   0.0000
     3 C2        4.7446    4.8780   -1.5410   C.3       1 RES1   0.0000
     4 C3        3.8801    5.9589   -2.1993   C.3       1 RES1   0.0000
     5 C4        2.9174    6.6958   -1.2601   C.3       1 RES1   0.0000
     6 C5        2.0438    5.7458   -0.4406   C.3       1 RES1   0.0000
     7 C6        0.9454    6.4482    0.3633   C.3       1 RES1   0.0000
     8 C7       -0.3200    6.7728   -0.4406   C.3       1 RES1   0.0000
     9 C8       -1.4149    5.6978   -0.3324   C.3       1 RES1   0.0000
    10 N1       -1.0880    4.4365   -0.9917   N.am      1 RES1   0.0000
    11 C9       -0.8699    4.5338   -2.4377   C.3       1 RES1   0.0000
    12 C10      -2.0572    5.0717   -3.2533   C.3       1 RES1   0.0000
    13 C11      -2.1645    6.5901   -3.3868   C.3       1 RES1   0.0000
    14 C12      -1.0629    3.2487   -0.4012   C.2       1 RES1   0.0000
    15 O1       -0.7441    2.1953   -0.9915   O.2       1 RES1   0.0000
    16 C13      -1.4771    3.1129    1.0801   C.3       1 RES1   0.0000
    17 O2       -1.0499    1.8324    1.5362   O.3       1 RES1   0.0000
    18 C14      -1.9364    1.2013    2.4588   C.3       1 RES1   0.0000
    19 C15      -2.8378    0.2267    1.6835   C.2       1 RES1   0.0000
    20 O3       -2.4626   -0.0569    0.5279   O.2       1 RES1   0.0000
    21 N2       -3.9346   -0.2657    2.2433   N.am      1 RES1   0.0000
    22 C16      -4.8502   -1.0610    1.4226   C.3       1 RES1   0.0000
    23 C17      -6.2980   -0.5600    1.4433   C.3       1 RES1   0.0000
    24 C18      -6.4768    0.8096    0.8030   C.3       1 RES1   0.0000
    25 C19      -4.3558    0.0506    3.6034   C.3       1 RES1   0.0000
    26 C20      -4.8576   -1.1521    4.4141   C.3       1 RES1   0.0000
    27 C21      -3.7605   -1.9086    5.1605   C.3       1 RES1   0.0000
    28 C22      -2.9455   -2.9003    4.3277   C.3       1 RES1   0.0000
    29 C23      -2.1332   -3.7930    5.2701   C.3       1 RES1   0.0000
    30 C24      -1.1572   -4.7789    4.6222   C.3       1 RES1   0.0000
    31 C25      -1.7810   -6.0456    4.0221   C.3       1 RES1   0.0000
    32 C26      -2.2109   -5.9180    2.5651   C.3       1 RES1   0.0000
    33 H1        6.2397    4.5841   -0.0162   H         1 RES1   0.0000
    34 H2        6.2402    6.1940   -0.7212   H         1 RES1   0.0000
    35 H3        4.9934    5.7462    0.4380   H         1 RES1   0.0000
    36 H4        5.4061    4.4612   -2.3040   H         1 RES1   0.0000
    37 H5        4.1076    4.0587   -1.1929   H         1 RES1   0.0000
    38 H6        4.5432    6.6941   -2.6574   H         1 RES1   0.0000
    39 H7        3.3071    5.4903   -3.0063   H         1 RES1   0.0000
    40 H8        3.4915    7.3261   -0.5836   H         1 RES1   0.0000
    41 H9        2.2912    7.3555   -1.8611   H         1 RES1   0.0000
    42 H10       1.5974    5.0016   -1.1068   H         1 RES1   0.0000
    43 H11       2.7044    5.2265    0.2541   H         1 RES1   0.0000
    44 H12       0.6648    5.8339    1.2258   H         1 RES1   0.0000
    45 H13       1.3657    7.3713    0.7630   H         1 RES1   0.0000
    46 H14      -0.7645    7.6900   -0.0510   H         1 RES1   0.0000
    47 H15      -0.0574    6.9679   -1.4776   H         1 RES1   0.0000
    48 H16      -1.6164    5.5318    0.7230   H         1 RES1   0.0000
    49 H17      -2.3340    6.0690   -0.7886   H         1 RES1   0.0000
    50 H18      -0.0079    5.1749   -2.6251   H         1 RES1   0.0000
    51 H19      -0.6387    3.5218   -2.7790   H         1 RES1   0.0000
    52 H20      -1.9285    4.6798   -4.2650   H         1 RES1   0.0000
    53 H21      -2.9996    4.6670   -2.8767   H         1 RES1   0.0000
    54 H22      -1.1919    7.0381   -3.5688   H         1 RES1   0.0000
    55 H23      -2.7943    6.8157   -4.2419   H         1 RES1   0.0000
    56 H24      -2.6096    7.0817   -2.5238   H         1 RES1   0.0000
    57 H25      -1.0258    3.8725    1.7406   H         1 RES1   0.0000
    58 H26      -2.5693    3.2153    1.1205   H         1 RES1   0.0000
    59 H27      -1.2925    0.6560    3.1601   H         1 RES1   0.0000
    60 H28      -2.4974    1.9576    3.0121   H         1 RES1   0.0000
    61 H29      -4.4615   -1.0143    0.4024   H         1 RES1   0.0000
    62 H30      -4.8257   -2.1006    1.7626   H         1 RES1   0.0000
    63 H31      -6.8981   -1.2776    0.8836   H         1 RES1   0.0000
    64 H32      -6.6828   -0.5458    2.4627   H         1 RES1   0.0000
    65 H33      -6.1737    0.7917   -0.2411   H         1 RES1   0.0000
    66 H34      -7.5244    1.0954    0.8429   H         1 RES1   0.0000
    67 H35      -5.8989    1.5724    1.3217   H         1 RES1   0.0000
    68 H36      -3.5207    0.4792    4.1539   H         1 RES1   0.0000
    69 H37      -5.1486    0.8039    3.5362   H         1 RES1   0.0000
    70 H38      -5.5556   -0.7622    5.1577   H         1 RES1   0.0000
    71 H39      -5.4137   -1.8432    3.7872   H         1 RES1   0.0000
    72 H40      -3.0916   -1.1880    5.6363   H         1 RES1   0.0000
    73 H41      -4.2369   -2.4729    5.9624   H         1 RES1   0.0000
    74 H42      -3.6257   -3.5163    3.7387   H         1 RES1   0.0000
    75 H43      -2.2846   -2.3644    3.6380   H         1 RES1   0.0000
    76 H44      -1.5628   -3.1425    5.9384   H         1 RES1   0.0000
    77 H45      -2.8282   -4.3572    5.8929   H         1 RES1   0.0000
    78 H46      -0.5736   -4.2642    3.8588   H         1 RES1   0.0000
    79 H47      -0.4614   -5.0923    5.4051   H         1 RES1   0.0000
    80 H48      -1.0507   -6.8544    4.0883   H         1 RES1   0.0000
    81 H49      -2.6416   -6.3417    4.6218   H         1 RES1   0.0000
    82 H50      -1.3601   -5.6822    1.9273   H         1 RES1   0.0000
    83 H51      -2.6262   -6.8600    2.2214   H         1 RES1   0.0000
    84 H52      -2.9670   -5.1478    2.4403   H         1 RES1   0.0000
    85 C27       1.8152    1.5865   10.1366   C.3       1 RES1   0.0000
    86 C28       1.0590    2.7178    9.4482   C.3       1 RES1   0.0000
    87 C29       1.8666    3.3548    8.3166   C.3       1 RES1   0.0000
    88 C30       1.1137    4.5031    7.6438   C.3       1 RES1   0.0000
    89 C31       1.8686    5.0790    6.4417   C.3       1 RES1   0.0000
    90 C32       1.7168    4.2527    5.1541   C.3       1 RES1   0.0000
    91 C33       2.9337    4.4501    4.2473   C.3       1 RES1   0.0000
    92 C34       2.8736    3.7826    2.8664   C.3       1 RES1   0.0000
    93 N3        2.5633    2.3548    2.8668   N.am      1 RES1   0.0000
    94 C35       3.0459    1.4958    3.9449   C.3       1 RES1   0.0000
    95 C36       4.2747    0.6943    3.4919   C.3       1 RES1   0.0000
    96 C37       5.4411    1.5696    3.0409   C.3       1 RES1   0.0000
    97 C38       1.9997    1.7677    1.8089   C.2       1 RES1   0.0000
    98 O4        1.3929    0.6844    1.8573   O.2       1 RES1   0.0000
    99 C39       2.1750    2.4741    0.4546   C.3       1 RES1   0.0000
   100 O5        1.8099    1.5436   -0.5480   O.3       1 RES1   0.0000
   101 C40       2.1488    1.9230   -1.8777   C.3       1 RES1   0.0000
   102 C41       1.6737    0.7384   -2.7434   C.2       1 RES1   0.0000
   103 O6        1.0515   -0.1720   -2.1698   O.2       1 RES1   0.0000
   104 N4        2.0041    0.6563   -4.0244   N.am      1 RES1   0.0000
   105 C42       1.8827   -0.6658   -4.6496   C.3       1 RES1   0.0000
   106 C43       2.8503   -1.6898   -4.0454   C.3       1 RES1   0.0000
   107 C44       4.3003   -1.2117   -4.0498   C.3       1 RES1   0.0000
   108 C45       2.4356    1.7630   -4.8662   C.3       1 RES1   0.0000
   109 C46       1.5691    1.9557   -6.1224   C.3       1 RES1   0.0000
   110 C47       0.1542    2.4814   -5.8754   C.3       1 RES1   0.0000
   111 C48      -0.8210    1.4589   -5.2840   C.3       1 RES1   0.0000
   112 C49      -2.2701    1.9063   -5.4917   C.3       1 RES1   0.0000
   113 C50      -3.2886    1.1588   -4.6303   C.3       1 RES1   0.0000
   114 C51      -3.0506    1.3316   -3.1257   C.3       1 RES1   0.0000
   115 C52      -4.3147    1.0737   -2.3152   C.3       1 RES1   0.0000
   116 H53       1.2013    1.1442   10.9163   H         1 RES1   0.0000
   117 H54       2.7263    1.9593   10.5949   H         1 RES1   0.0000
   118 H55       2.0878    0.8087    9.4265   H         1 RES1   0.0000
   119 H56       0.8152    3.4826   10.1869   H         1 RES1   0.0000
   120 H57       0.1156    2.3365    9.0467   H         1 RES1   0.0000
   121 H58       2.1157    2.5839    7.5804   H         1 RES1   0.0000
   122 H59       2.8052    3.7358    8.7249   H         1 RES1   0.0000
   123 H60       0.9674    5.2912    8.3820   H         1 RES1   0.0000
   124 H61       0.1207    4.1654    7.3406   H         1 RES1   0.0000
   125 H62       2.9255    5.1424    6.7060   H         1 RES1   0.0000
   126 H63       1.5239    6.0932    6.2473   H         1 RES1   0.0000
   127 H64       0.8095    4.5527    4.6222   H         1 RES1   0.0000
   128 H65       1.6050    3.2017    5.4216   H         1 RES1   0.0000
   129 H66       3.8296    4.1402    4.7837   H         1 RES1   0.0000
   130 H67       3.0382    5.5186    4.0522   H         1 RES1   0.0000
   131 H68       3.8275    3.9680    2.3598   H         1 RES1   0.0000
   132 H69       2.0788    4.2760    2.3030   H         1 RES1   0.0000
   133 H70       2.2443    0.8071    4.2158   H         1 RES1   0.0000
   134 H71       3.3127    2.1161    4.7942   H         1 RES1   0.0000
   135 H72       3.9800    0.0221    2.6806   H         1 RES1   0.0000
   136 H73       4.6031    0.0798    4.3326   H         1 RES1   0.0000
   137 H74       5.1956    2.1216    2.1348   H         1 RES1   0.0000
   138 H75       6.3056    0.9460    2.8251   H         1 RES1   0.0000
   139 H76       5.7208    2.2759    3.8200   H         1 RES1   0.0000
   140 H77       3.2326    2.7691    0.3474   H         1 RES1   0.0000
   141 H78       1.5531    3.3741    0.3902   H         1 RES1   0.0000
   142 H79       3.2387    2.0292   -1.9965   H         1 RES1   0.0000
   143 H80       1.6607    2.8678   -2.1481   H         1 RES1   0.0000
   144 H81       2.1048   -0.5633   -5.7085   H         1 RES1   0.0000
   145 H82       0.8552   -1.0160   -4.5210   H         1 RES1   0.0000
   146 H83       2.7777   -2.5936   -4.6519   H         1 RES1   0.0000
   147 H84       2.5378   -1.9393   -3.0298   H         1 RES1   0.0000
   148 H85       4.6216   -0.9547   -5.0577   H         1 RES1   0.0000
   149 H86       4.9522   -2.0018   -3.6818   H         1 RES1   0.0000
   150 H87       4.4286   -0.3419   -3.4068   H         1 RES1   0.0000
   151 H88       3.4703    1.5882   -5.1800   H         1 RES1   0.0000
   152 H89       2.4117    2.6877   -4.2895   H         1 RES1   0.0000
   153 H90       1.4998    1.0298   -6.6909   H         1 RES1   0.0000
   154 H91       2.0937    2.6744   -6.7576   H         1 RES1   0.0000
   155 H92      -0.2446    2.7974   -6.8422   H         1 RES1   0.0000
   156 H93       0.1939    3.3707   -5.2391   H         1 RES1   0.0000
   157 H94      -0.6252    1.3195   -4.2180   H         1 RES1   0.0000
   158 H95      -0.6828    0.4975   -5.7782   H         1 RES1   0.0000
   159 H96      -2.5346    1.7733   -6.5415   H         1 RES1   0.0000
   160 H97      -2.3575    2.9710   -5.2741   H         1 RES1   0.0000
   161 H98      -3.2917    0.0998   -4.8977   H         1 RES1   0.0000
   162 H99      -4.2793    1.5553   -4.8695   H         1 RES1   0.0000
   163 H100     -2.7252    2.3558   -2.9429   H         1 RES1   0.0000
   164 H101     -2.2541    0.6635   -2.7641   H         1 RES1   0.0000
   165 H102     -5.0515    1.8521   -2.4983   H         1 RES1   0.0000
   166 H103     -4.0723    1.0546   -1.2556   H         1 RES1   0.0000
   167 H104     -4.7631    0.1228   -2.5867   H         1 RES1   0.0000
   168 C53      -7.4748   -0.6308   -6.2868   C.3       1 RES1   0.0000
   169 C54      -7.1184   -0.9276   -4.8359   C.3       1 RES1   0.0000
   170 C55      -8.3662   -1.0207   -3.9577   C.3       1 RES1   0.0000
   171 C56      -8.0656   -1.1895   -2.4673   C.3       1 RES1   0.0000
   172 C57      -7.4486   -2.5537   -2.1270   C.3       1 RES1   0.0000
   173 C58      -5.9248   -2.5098   -1.9814   C.3       1 RES1   0.0000
   174 C59      -5.3097   -3.9114   -1.9391   C.3       1 RES1   0.0000
   175 C60      -3.9195   -3.9768   -1.2897   C.3       1 RES1   0.0000
   176 N5       -2.9458   -3.0003   -1.7736   N.am      1 RES1   0.0000
   177 C61      -2.9394   -2.6288   -3.1907   C.3       1 RES1   0.0000
   178 C62      -1.6652   -3.0605   -3.9212   C.3       1 RES1   0.0000
   179 C63      -1.4846   -4.5737   -3.8876   C.3       1 RES1   0.0000
   180 C64      -2.0047   -2.4563   -1.0140   C.2       1 RES1   0.0000
   181 O7       -1.2512   -1.5570   -1.4263   O.2       1 RES1   0.0000
   182 C65      -1.7640   -3.0136    0.4009   C.3       1 RES1   0.0000
   183 O8       -0.7817   -2.2174    1.0537   O.3       1 RES1   0.0000
   184 C66       0.2329   -2.9285    1.7528   C.3       1 RES1   0.0000
   185 C67       1.6016   -2.4543    1.2419   C.2       1 RES1   0.0000
   186 O9        1.6145   -1.5571    0.3786   O.2       1 RES1   0.0000
   187 N6        2.6950   -3.0126    1.7295   N.am      1 RES1   0.0000
   188 C68       3.9864   -2.5755    1.1934   C.3       1 RES1   0.0000
   189 C69       4.1846   -2.9011   -0.2883   C.3       1 RES1   0.0000
   190 C70       3.9991   -4.3824   -0.5915   C.3       1 RES1   0.0000
   191 C71       2.7476   -4.0812    2.7191   C.3       1 RES1   0.0000
   192 C72       3.5169   -3.7111    4.0028   C.3       1 RES1   0.0000
   193 C73       2.6200   -3.3875    5.2012   C.3       1 RES1   0.0000
   194 C74       2.1322   -1.9423    5.2199   C.3       1 RES1   0.0000
   195 C75       1.3815   -1.6327    6.5132   C.3       1 RES1   0.0000
   196 C76       0.8560   -0.2005    6.6087   C.3       1 RES1   0.0000
   197 C77      -0.2851    0.1047    5.6386   C.3       1 RES1   0.0000
   198 C78      -0.9591    1.4286    5.9771   C.3       1 RES1   0.0000
   199 H105     -6.5760   -0.5533   -6.8919   H         1 RES1   0.0000
   200 H106     -8.0217    0.3041   -6.3639   H         1 RES1   0.0000
   201 H107     -8.0980   -1.4213   -6.6941   H         1 RES1   0.0000
   202 H108     -6.4691   -0.1338   -4.4542   H         1 RES1   0.0000
   203 H109     -6.5652   -1.8696   -4.7956   H         1 RES1   0.0000
   204 H110     -8.9810   -1.8579   -4.2955   H         1 RES1   0.0000
   205 H111     -8.9554   -0.1109   -4.0960   H         1 RES1   0.0000
   206 H112     -9.0052   -1.0695   -1.9264   H         1 RES1   0.0000
   207 H113     -7.4051   -0.3834   -2.1402   H         1 RES1   0.0000
   208 H114     -7.7070   -3.2628   -2.9139   H         1 RES1   0.0000
   209 H115     -7.8774   -2.9328   -1.1993   H         1 RES1   0.0000
   210 H116     -5.5219   -1.9473   -2.8220   H         1 RES1   0.0000
   211 H117     -5.6545   -1.9777   -1.0684   H         1 RES1   0.0000
   212 H118     -5.3105   -4.3511   -2.9358   H         1 RES1   0.0000
   213 H119     -5.9510   -4.5526   -1.3292   H         1 RES1   0.0000
   214 H120     -3.5117   -4.9870   -1.4145   H         1 RES1   0.0000
   215 H121     -4.0666   -3.8045   -0.2230   H         1 RES1   0.0000
   216 H122     -3.0501   -1.5451   -3.2588   H         1 RES1   0.0000
   217 H123     -3.7829   -3.1166   -3.6654   H         1 RES1   0.0000
   218 H124     -0.7929   -2.5614   -3.4940   H         1 RES1   0.0000
   219 H125     -1.7685   -2.7353   -4.9581   H         1 RES1   0.0000
   220 H126     -1.3394   -4.9283   -2.8683   H         1 RES1   0.0000
   221 H127     -0.6175   -4.8633   -4.4742   H         1 RES1   0.0000
   222 H128     -2.3565   -5.0692   -4.3101   H         1 RES1   0.0000
   223 H129     -1.4276   -4.0506    0.2827   H         1 RES1   0.0000
   224 H130     -2.6725   -3.0033    1.0140   H         1 RES1   0.0000
   225 H131      0.1327   -4.0083    1.6040   H         1 RES1   0.0000
   226 H132      0.1322   -2.6954    2.8215   H         1 RES1   0.0000
   227 H133      4.7627   -3.0657    1.7761   H         1 RES1   0.0000
   228 H134      4.0529   -1.4931    1.3266   H         1 RES1   0.0000
   229 H135      5.2036   -2.6088   -0.5445   H         1 RES1   0.0000
   230 H136      3.5011   -2.3023   -0.8915   H         1 RES1   0.0000
   231 H137      4.6949   -4.9846   -0.0114   H         1 RES1   0.0000
   232 H138      4.1921   -4.5688   -1.6444   H         1 RES1   0.0000
   233 H139      2.9816   -4.7009   -0.3704   H         1 RES1   0.0000
   234 H140      3.2431   -4.9301    2.2410   H         1 RES1   0.0000
   235 H141      1.7460   -4.4000    3.0004   H         1 RES1   0.0000
   236 H142      4.1687   -2.8571    3.8159   H         1 RES1   0.0000
   237 H143      4.1490   -4.5591    4.2682   H         1 RES1   0.0000
   238 H144      3.1956   -3.5600    6.1117   H         1 RES1   0.0000
   239 H145      1.7696   -4.0732    5.2259   H         1 RES1   0.0000
   240 H146      1.4963   -1.7523    4.3513   H         1 RES1   0.0000
   241 H147      2.9976   -1.2829    5.1489   H         1 RES1   0.0000
   242 H148      2.0568   -1.8011    7.3535   H         1 RES1   0.0000
   243 H149      0.5495   -2.3297    6.6277   H         1 RES1   0.0000
   244 H150      1.6779    0.5006    6.4485   H         1 RES1   0.0000
   245 H151      0.4881   -0.0396    7.6235   H         1 RES1   0.0000
   246 H152     -1.0170   -0.7037    5.7013   H         1 RES1   0.0000
   247 H153      0.0953    0.1275    4.6098   H         1 RES1   0.0000
   248 H154     -1.2461    1.4434    7.0239   H         1 RES1   0.0000
   249 H155     -1.8583    1.5849    5.3874   H         1 RES1   0.0000
   250 H156     -0.2883    2.2619    5.7996   H         1 RES1   0.0000
@<TRIPOS>BOND
     1     1    15    1
     2     1    17    1
     3     1    20    1
     4     1    98    1
     5     1   100    1
     6     1   103    1
     7     1   181    1
     8     1   183    1
     9     1   186    1
    10     2     3    1
    11     2    33    1
    12     2    34    1
    13     2    35    1
    14     3     4    1
    15     3    36    1
    16     3    37    1
    17     4     5    1
    18     4    38    1
    19     4    39    1
    20     5     6    1
    21     5    40    1
    22     5    41    1
    23     6     7    1
    24     6    42    1
    25     6    43    1
    26     7     8    1
    27     7    44    1
    28     7    45    1
    29     8     9    1
    30     8    46    1
    31     8    47    1
    32     9    10    1
    33     9    48    1
    34     9    49    1
    35    10    11    1
    36    10    14    1
    37    11    12    1
    38    11    50    1
    39    11    51    1
    40    12    13    1
    41    12    52    1
    42    12    53    1
    43    13    54    1
    44    13    55    1
    45    13    56    1
    46    14    15    2
    47    14    16    1
    48    16    17    1
    49    16    57    1
    50    16    58    1
    51    17    18    1
    52    18    19    1
    53    18    59    1
    54    18    60    1
    55    19    20    2
    56    19    21    1
    57    21    22    1
    58    21    25    1
    59    22    23    1
    60    22    61    1
    61    22    62    1
    62    23    24    1
    63    23    63    1
    64    23    64    1
    65    24    65    1
    66    24    66    1
    67    24    67    1
    68    25    26    1
    69    25    68    1
    70    25    69    1
    71    26    27    1
    72    26    70    1
    73    26    71    1
    74    27    28    1
    75    27    72    1
    76    27    73    1
    77    28    29    1
    78    28    74    1
    79    28    75    1
    80    29    30    1
    81    29    76    1
    82    29    77    1
    83    30    31    1
    84    30    78    1
    85    30    79    1
    86    31    32    1
    87    31    80    1
    88    31    81    1
    89    32    82    1
    90    32    83    1
    91    32    84    1
    92    85    86    1
    93    85   116    1
    94    85   117    1
    95    85   118    1
    96    86    87    1
    97    86   119    1
    98    86   120    1
    99    87    88    1
   100    87   121    1
   101    87   122    1
   102    88    89    1
   103    88   123    1
   104    88   124    1
   105    89    90    1
   106    89   125    1
   107    89   126    1
   108    90    91    1
   109    90   127    1
   110    90   128    1
   111    91    92    1
   112    91   129    1
   113    91   130    1
   114    92    93    1
   115    92   131    1
   116    92   132    1
   117    93    94    1
   118    93    97    1
   119    94    95    1
   120    94   133    1
   121    94   134    1
   122    95    96    1
   123    95   135    1
   124    95   136    1
   125    96   137    1
   126    96   138    1
   127    96   139    1
   128    97    98    2
   129    97    99    1
   130    99   100    1
   131    99   140    1
   132    99   141    1
   133   100   101    1
   134   101   102    1
   135   101   142    1
   136   101   143    1
   137   102   103    2
   138   102   104    1
   139   104   105    1
   140   104   108    1
   141   105   106    1
   142   105   144    1
   143   105   145    1
   144   106   107    1
   145   106   146    1
   146   106   147    1
   147   107   148    1
   148   107   149    1
   149   107   150    1
   150   108   109    1
   151   108   151    1
   152   108   152    1
   153   109   110    1
   154   109   153    1
   155   109   154    1
   156   110   111    1
   157   110   155    1
   158   110   156    1
   159   111   112    1
   160   111   157    1
   161   111   158    1
   162   112   113    1
   163   112   159    1
   164   112   160    1
   165   113   114    1
   166   113   161    1
   167   113   162    1
   168   114   115    1
   169   114   163    1
   170   114   164    1
   171   115   165    1
   172   115   166    1
   173   115   167    1
   174   168   169    1
   175   168   199    1
   176   168   200    1
   177   168   201    1
   178   169   170    1
   179   169   202    1
   180   169   203    1
   181   170   171    1
   182   170   204    1
   183   170   205    1
   184   171   172    1
   185   171   206    1
   186   171   207    1
   187   172   173    1
   188   172   208    1
   189   172   209    1
   190   173   174    1
   191   173   210    1
   192   173   211    1
   193   174   175    1
   194   174   212    1
   195   174   213    1
   196   175   176    1
   197   175   214    1
   198   175   215    1
   199   176   177    1
   200   176   180    1
   201   177   178    1
   202   177   216    1
   203   177   217    1
   204   178   179    1
   205   178   218    1
   206   178   219    1
   207   179   220    1
   208   179   221    1
   209   179   222    1
   210   180   181    2
   211   180   182    1
   212   182   183    1
   213   182   223    1
   214   182   224    1
   215   183   184    1
   216   184   185    1
   217   184   225    1
   218   184   226    1
   219   185   186    2
   220   185   187    1
   221   187   188    1
   222   187   191    1
   223   188   189    1
   224   188   227    1
   225   188   228    1
   226   189   190    1
   227   189   229    1
   228   189   230    1
   229   190   231    1
   230   190   232    1
   231   190   233    1
   232   191   192    1
   233   191   234    1
   234   191   235    1
   235   192   193    1
   236   192   236    1
   237   192   237    1
   238   193   194    1
   239   193   238    1
   240   193   239    1
   241   194   195    1
   242   194   240    1
   243   194   241    1
   244   195   196    1
   245   195   242    1
   246   195   243    1
   247   196   197    1
   248   196   244    1
   249   196   245    1
   250   197   198    1
   251   197   246    1
   252   197   247    1
   253   198   248    1
   254   198   249    1
   255   198   250    1
@<TRIPOS>SUBSTRUCTURE
     1 RES1      250 GROUP             0 ****  ****    0  
