@<TRIPOS>MOLECULE
cn9_YICLED_0_nunpairedes_0_charge_3 Charge: 3 Unpaired_Electrons: 2 XTB_Unpaired_Electrons: 0 XTB_Charge: 3
    92    97     1     0     0
SMALL
NoCharges
****
Generated from Architector

@<TRIPOS>ATOM
     1 Pr1      -0.2013   -0.3309    1.3007   Pr        1 RES1   0.0000
     2 C1       -1.8037    4.2351   -4.3423   C.3       1 RES1   0.0000
     3 C2       -0.3680    3.8986   -4.7241   C.3       1 RES1   0.0000
     4 C3       -0.1823    2.4357   -5.1377   C.3       1 RES1   0.0000
     5 C4       -0.2987    1.4216   -3.9876   C.3       1 RES1   0.0000
     6 C5        1.0688    0.9786   -3.4604   C.3       1 RES1   0.0000
     7 C6        1.8678    2.0931   -2.8091   C.3       1 RES1   0.0000
     8 O1        1.2585    2.5960   -1.5633   O.3       1 RES1   0.0000
     9 P1        0.5774    1.7457   -0.4971   P.3       1 RES1   0.0000
    10 O2        0.8718    0.2797   -0.4323   O.2       1 RES1   0.0000
    11 O3       -1.0228    1.8596   -0.4946   O.3       1 RES1   0.0000
    12 O4        0.7575    2.3647    0.9674   O.3       1 RES1   0.0000
    13 C7        1.9883    2.5682    1.7127   C.3       1 RES1   0.0000
    14 C8        2.1841    1.4755    2.7717   C.3       1 RES1   0.0000
    15 C9        1.2948    1.5987    4.0267   C.3       1 RES1   0.0000
    16 C10      -0.0607    0.8652    3.9866   C.3       1 RES1   0.0000
    17 C11      -1.2088    1.6792    3.3275   C.3       1 RES1   0.0000
    18 C12      -2.5160    0.8731    3.2814   C.3       1 RES1   0.0000
    19 H1       -1.8811    5.2823   -4.0677   H         1 RES1   0.0000
    20 H2       -2.1485    3.6321   -3.5024   H         1 RES1   0.0000
    21 H3       -2.4724    4.0661   -5.1808   H         1 RES1   0.0000
    22 H4        0.2979    4.1619   -3.8986   H         1 RES1   0.0000
    23 H5       -0.0926    4.5193   -5.5749   H         1 RES1   0.0000
    24 H6        0.7928    2.3159   -5.6171   H         1 RES1   0.0000
    25 H7       -0.9411    2.2058   -5.8861   H         1 RES1   0.0000
    26 H8       -0.8215    0.5332   -4.3446   H         1 RES1   0.0000
    27 H9       -0.8985    1.8423   -3.1744   H         1 RES1   0.0000
    28 H10       1.6595    0.6009   -4.2972   H         1 RES1   0.0000
    29 H11       0.9668    0.1545   -2.7482   H         1 RES1   0.0000
    30 H12       1.9032    2.9887   -3.4304   H         1 RES1   0.0000
    31 H13       2.8814    1.7702   -2.5680   H         1 RES1   0.0000
    32 H14      -1.4045    2.6938   -0.8125   H         1 RES1   0.0000
    33 H15       1.9024    3.5518    2.1890   H         1 RES1   0.0000
    34 H16       2.8167    2.5977    1.0061   H         1 RES1   0.0000
    35 H17       3.2258    1.5544    3.1002   H         1 RES1   0.0000
    36 H18       2.0839    0.4589    2.3107   H         1 RES1   0.0000
    37 H19       1.1065    2.6509    4.2577   H         1 RES1   0.0000
    38 H20       1.8632    1.1949    4.8671   H         1 RES1   0.0000
    39 H21      -0.3668    0.7002    5.0282   H         1 RES1   0.0000
    40 H22       0.0820   -0.1860    3.5312   H         1 RES1   0.0000
    41 H23      -0.9597    2.0392    2.3098   H         1 RES1   0.0000
    42 H24      -1.3669    2.5669    3.9530   H         1 RES1   0.0000
    43 H25      -2.4615   -0.0056    2.5914   H         1 RES1   0.0000
    44 H26      -3.3379    1.5162    2.9672   H         1 RES1   0.0000
    45 H27      -2.7611    0.5191    4.2838   H         1 RES1   0.0000
    46 C13      -0.0922   -7.9394   -0.3905   C.3       1 RES1   0.0000
    47 C14      -0.5288   -6.6378   -1.0533   C.3       1 RES1   0.0000
    48 C15       0.3281   -6.2890   -2.2750   C.3       1 RES1   0.0000
    49 C16      -0.1796   -5.0565   -3.0347   C.3       1 RES1   0.0000
    50 C17       0.4292   -3.7092   -2.6172   C.3       1 RES1   0.0000
    51 C18       0.4451   -3.4205   -1.1204   C.3       1 RES1   0.0000
    52 O5       -0.9021   -3.5213   -0.5768   O.3       1 RES1   0.0000
    53 P2       -1.4451   -2.8282    0.7027   P.3       1 RES1   0.0000
    54 O6       -0.4541   -2.3596    1.7266   O.2       1 RES1   0.0000
    55 O7       -2.5228   -3.6682    1.3884   O.3       1 RES1   0.0000
    56 O8       -2.0150   -1.3602    0.1712   O.3       1 RES1   0.0000
    57 C19      -2.3103   -1.1215   -1.2594   C.3       1 RES1   0.0000
    58 C20      -3.7872   -0.8549   -1.5351   C.3       1 RES1   0.0000
    59 C21      -4.5191   -2.1148   -1.9918   C.3       1 RES1   0.0000
    60 C22      -4.3387   -3.2198   -0.9571   C.3       1 RES1   0.0000
    61 C23      -5.4140   -4.3009   -0.9707   C.3       1 RES1   0.0000
    62 C24      -5.3393   -5.1028    0.3222   C.3       1 RES1   0.0000
    63 H28      -0.6872   -8.1203    0.5006   H         1 RES1   0.0000
    64 H29       0.9556   -7.9025   -0.1021   H         1 RES1   0.0000
    65 H30      -0.2247   -8.7836   -1.0602   H         1 RES1   0.0000
    66 H31      -0.4864   -5.8360   -0.3085   H         1 RES1   0.0000
    67 H32      -1.5700   -6.7328   -1.3768   H         1 RES1   0.0000
    68 H33       0.2822   -7.1329   -2.9635   H         1 RES1   0.0000
    69 H34       1.3779   -6.1683   -1.9917   H         1 RES1   0.0000
    70 H35      -1.2684   -5.0252   -2.9516   H         1 RES1   0.0000
    71 H36       0.0578   -5.1683   -4.0937   H         1 RES1   0.0000
    72 H37      -0.1146   -2.9123   -3.1273   H         1 RES1   0.0000
    73 H38       1.4734   -3.6690   -2.9420   H         1 RES1   0.0000
    74 H39       0.8418   -2.4045   -0.9334   H         1 RES1   0.0000
    75 H40       1.0726   -4.1583   -0.6189   H         1 RES1   0.0000
    76 H41      -3.0706   -4.3568    0.9620   H         1 RES1   0.0000
    77 H42      -1.9864   -1.9955   -1.8263   H         1 RES1   0.0000
    78 H43      -1.7059   -0.2511   -1.5417   H         1 RES1   0.0000
    79 H44      -3.8641   -0.0822   -2.3011   H         1 RES1   0.0000
    80 H45      -4.2502   -0.4782   -0.6205   H         1 RES1   0.0000
    81 H46      -4.1521   -2.4355   -2.9674   H         1 RES1   0.0000
    82 H47      -5.5752   -1.8775   -2.0931   H         1 RES1   0.0000
    83 H48      -4.3587   -2.7549    0.0327   H         1 RES1   0.0000
    84 H49      -3.3629   -3.6920   -1.1101   H         1 RES1   0.0000
    85 H50      -5.2838   -4.9447   -1.8389   H         1 RES1   0.0000
    86 H51      -6.3933   -3.8324   -1.0519   H         1 RES1   0.0000
    87 H52      -4.3511   -5.5559    0.4360   H         1 RES1   0.0000
    88 H53      -6.0713   -5.9029    0.3311   H         1 RES1   0.0000
    89 H54      -5.5390   -4.4599    1.1770   H         1 RES1   0.0000
    90 O9        2.2002   -1.5502    1.3120   O.3       1 RES1   0.0000
    91 H55       2.8728   -1.4721    0.6167   H         1 RES1   0.0000
    92 H56       2.4383   -2.3609    1.7926   H         1 RES1   0.0000
@<TRIPOS>BOND
     1     1     8    1
     2     1    10    1
     3     1    11    1
     4     1    12    1
     5     1    52    1
     6     1    54    1
     7     1    55    1
     8     1    56    1
     9     1    90    1
    10     2     3    1
    11     2    19    1
    12     2    20    1
    13     2    21    1
    14     3     4    1
    15     3    22    1
    16     3    23    1
    17     4     5    1
    18     4    24    1
    19     4    25    1
    20     5     6    1
    21     5    26    1
    22     5    27    1
    23     6     7    1
    24     6    28    1
    25     6    29    1
    26     7     8    1
    27     7    30    1
    28     7    31    1
    29     8     9    1
    30     9    10    2
    31     9    11    1
    32     9    12    1
    33    11    32    1
    34    12    13    1
    35    13    14    1
    36    13    33    1
    37    13    34    1
    38    14    15    1
    39    14    35    1
    40    14    36    1
    41    15    16    1
    42    15    37    1
    43    15    38    1
    44    16    17    1
    45    16    39    1
    46    16    40    1
    47    17    18    1
    48    17    41    1
    49    17    42    1
    50    18    43    1
    51    18    44    1
    52    18    45    1
    53    46    47    1
    54    46    63    1
    55    46    64    1
    56    46    65    1
    57    47    48    1
    58    47    66    1
    59    47    67    1
    60    48    49    1
    61    48    68    1
    62    48    69    1
    63    49    50    1
    64    49    70    1
    65    49    71    1
    66    50    51    1
    67    50    72    1
    68    50    73    1
    69    51    52    1
    70    51    74    1
    71    51    75    1
    72    52    53    1
    73    53    54    2
    74    53    55    1
    75    53    56    1
    76    55    76    1
    77    56    57    1
    78    57    58    1
    79    57    77    1
    80    57    78    1
    81    58    59    1
    82    58    79    1
    83    58    80    1
    84    59    60    1
    85    59    81    1
    86    59    82    1
    87    60    61    1
    88    60    83    1
    89    60    84    1
    90    61    62    1
    91    61    85    1
    92    61    86    1
    93    62    87    1
    94    62    88    1
    95    62    89    1
    96    90    91    1
    97    90    92    1
@<TRIPOS>SUBSTRUCTURE
     1 RES1       92 GROUP             0 ****  ****    0  
