@<TRIPOS>MOLECULE
am_c3_9H2O_c0_0_nunpairedes_0_charge_3 Charge: 3 Unpaired_Electrons: 2 XTB_Unpaired_Electrons: 0 XTB_Charge: 3
   367   372     1     0     0
SMALL
NoCharges
****
Generated from Architector

@<TRIPOS>ATOM
     1 Pr1       0.2692   -0.3942    0.2253   Pr        1 RES1   0.0000
     2 C1       -4.2324    8.8184    5.2074   C.3       1 RES1   0.0000
     3 C2       -4.8171    7.5203    5.7537   C.3       1 RES1   0.0000
     4 C3       -6.0826    7.1140    5.0008   C.3       1 RES1   0.0000
     5 C4       -6.6829    5.7782    5.4647   C.3       1 RES1   0.0000
     6 C5       -6.4661    4.6094    4.4969   C.3       1 RES1   0.0000
     7 C6       -5.0635    4.0089    4.5847   C.3       1 RES1   0.0000
     8 C7       -4.8622    2.8561    3.5918   C.3       1 RES1   0.0000
     9 C8       -3.8155    1.8103    4.0367   C.3       1 RES1   0.0000
    10 N1       -2.5033    1.8561    3.3980   N.am      1 RES1   0.0000
    11 C9       -1.5326    2.8051    3.9286   C.3       1 RES1   0.0000
    12 C10      -1.7155    4.1951    3.3124   C.3       1 RES1   0.0000
    13 C11      -0.9782    5.2531    4.1289   C.3       1 RES1   0.0000
    14 C12      -1.2316    6.6832    3.6476   C.3       1 RES1   0.0000
    15 C13      -0.6711    6.9952    2.2530   C.3       1 RES1   0.0000
    16 C14      -1.6760    6.8133    1.1137   C.3       1 RES1   0.0000
    17 C15      -1.1675    7.3784   -0.2128   C.3       1 RES1   0.0000
    18 C16      -0.0696    6.5267   -0.8400   C.3       1 RES1   0.0000
    19 C17      -2.1502    1.0438    2.4116   C.2       1 RES1   0.0000
    20 O1       -0.9733    0.9439    1.9932   O.2       1 RES1   0.0000
    21 C18      -3.2281    0.2202    1.6933   C.3       1 RES1   0.0000
    22 C19      -3.2835   -1.2069    2.2253   C.3       1 RES1   0.0000
    23 O2       -2.8261    0.1695    0.3295   O.3       1 RES1   0.0000
    24 C20      -3.1154    1.3986   -0.3663   C.3       1 RES1   0.0000
    25 C21      -4.5711    1.3775   -0.8563   C.3       1 RES1   0.0000
    26 C22      -5.2987    2.7215   -0.8025   C.3       1 RES1   0.0000
    27 C23      -1.9877    1.4032   -1.3954   C.2       1 RES1   0.0000
    28 O3       -0.8370    1.1424   -0.9688   O.2       1 RES1   0.0000
    29 N2       -2.2078    1.5221   -2.6944   N.am      1 RES1   0.0000
    30 C24      -3.1763    2.3936   -3.3477   C.3       1 RES1   0.0000
    31 C25      -4.0734    1.6061   -4.3165   C.3       1 RES1   0.0000
    32 C26      -3.9943    2.0934   -5.7659   C.3       1 RES1   0.0000
    33 C27      -5.1011    1.4867   -6.6311   C.3       1 RES1   0.0000
    34 C28      -4.7722    1.5484   -8.1251   C.3       1 RES1   0.0000
    35 C29      -5.8058    0.8372   -9.0050   C.3       1 RES1   0.0000
    36 C30      -5.9771   -0.6508   -8.6591   C.3       1 RES1   0.0000
    37 C31      -5.9872   -1.5340   -9.9018   C.3       1 RES1   0.0000
    38 C32      -1.1302    1.1181   -3.5817   C.3       1 RES1   0.0000
    39 C33      -0.5213   -0.2885   -3.3921   C.3       1 RES1   0.0000
    40 C34      -1.1032   -1.3970   -2.5099   C.3       1 RES1   0.0000
    41 C35       0.0407   -2.3798   -2.1510   C.3       1 RES1   0.0000
    42 C36       0.6088   -3.2794   -3.2699   C.3       1 RES1   0.0000
    43 C37       0.4662   -4.7587   -2.8856   C.3       1 RES1   0.0000
    44 C38       1.3488   -5.7406   -3.6618   C.3       1 RES1   0.0000
    45 C39       1.0649   -5.8415   -5.1571   C.3       1 RES1   0.0000
    46 H1       -3.3451    9.1097    5.7659   H         1 RES1   0.0000
    47 H2       -4.9573    9.6256    5.2840   H         1 RES1   0.0000
    48 H3       -3.9578    8.7094    4.1585   H         1 RES1   0.0000
    49 H4       -5.0566    7.6592    6.8084   H         1 RES1   0.0000
    50 H5       -4.0679    6.7273    5.6861   H         1 RES1   0.0000
    51 H6       -5.8697    7.0733    3.9308   H         1 RES1   0.0000
    52 H7       -6.8217    7.9013    5.1415   H         1 RES1   0.0000
    53 H8       -7.7580    5.8990    5.6005   H         1 RES1   0.0000
    54 H9       -6.2648    5.5142    6.4367   H         1 RES1   0.0000
    55 H10      -6.6580    4.9448    3.4765   H         1 RES1   0.0000
    56 H11      -7.1911    3.8250    4.7254   H         1 RES1   0.0000
    57 H12      -4.9201    3.6328    5.5970   H         1 RES1   0.0000
    58 H13      -4.3384    4.8043    4.4311   H         1 RES1   0.0000
    59 H14      -4.6253    3.2420    2.5996   H         1 RES1   0.0000
    60 H15      -5.8193    2.3398    3.5135   H         1 RES1   0.0000
    61 H16      -4.2218    0.8109    3.8878   H         1 RES1   0.0000
    62 H17      -3.6467    1.9329    5.1083   H         1 RES1   0.0000
    63 H18      -0.5342    2.4177    3.7139   H         1 RES1   0.0000
    64 H19      -1.6645    2.8684    5.0110   H         1 RES1   0.0000
    65 H20      -2.7727    4.4488    3.3177   H         1 RES1   0.0000
    66 H21      -1.3755    4.1940    2.2760   H         1 RES1   0.0000
    67 H22       0.0986    5.0593    4.1153   H         1 RES1   0.0000
    68 H23      -1.3097    5.1784    5.1681   H         1 RES1   0.0000
    69 H24      -0.7633    7.3555    4.3693   H         1 RES1   0.0000
    70 H25      -2.3028    6.8932    3.6649   H         1 RES1   0.0000
    71 H26       0.2211    6.3873    2.0787   H         1 RES1   0.0000
    72 H27      -0.3525    8.0386    2.2381   H         1 RES1   0.0000
    73 H28      -2.5946    7.3351    1.3838   H         1 RES1   0.0000
    74 H29      -1.9271    5.7592    0.9753   H         1 RES1   0.0000
    75 H30      -0.7941    8.3901   -0.0543   H         1 RES1   0.0000
    76 H31      -2.0011    7.4460   -0.9133   H         1 RES1   0.0000
    77 H32       0.7983    6.4627   -0.1866   H         1 RES1   0.0000
    78 H33       0.2476    6.9586   -1.7859   H         1 RES1   0.0000
    79 H34      -0.4405    5.5187   -1.0319   H         1 RES1   0.0000
    80 H35      -4.2164    0.6954    1.7645   H         1 RES1   0.0000
    81 H36      -2.2843   -1.6407    2.2029   H         1 RES1   0.0000
    82 H37      -3.6665   -1.2402    3.2414   H         1 RES1   0.0000
    83 H38      -3.9296   -1.7856    1.5695   H         1 RES1   0.0000
    84 H39      -2.9615    2.2529    0.3162   H         1 RES1   0.0000
    85 H40      -5.1156    0.7063   -0.1916   H         1 RES1   0.0000
    86 H41      -4.6420    0.9421   -1.8506   H         1 RES1   0.0000
    87 H42      -5.6181    2.9621    0.2064   H         1 RES1   0.0000
    88 H43      -6.1961    2.6758   -1.4111   H         1 RES1   0.0000
    89 H44      -4.7136    3.5680   -1.1553   H         1 RES1   0.0000
    90 H45      -2.5964    3.1548   -3.8806   H         1 RES1   0.0000
    91 H46      -3.7625    2.9107   -2.6032   H         1 RES1   0.0000
    92 H47      -5.1123    1.6442   -3.9831   H         1 RES1   0.0000
    93 H48      -3.7649    0.5557   -4.2815   H         1 RES1   0.0000
    94 H49      -3.0287    1.8109   -6.1922   H         1 RES1   0.0000
    95 H50      -4.0542    3.1806   -5.8046   H         1 RES1   0.0000
    96 H51      -6.0487    1.9982   -6.4474   H         1 RES1   0.0000
    97 H52      -5.2239    0.4458   -6.3342   H         1 RES1   0.0000
    98 H53      -3.7978    1.0796   -8.2919   H         1 RES1   0.0000
    99 H54      -4.6888    2.5934   -8.4394   H         1 RES1   0.0000
   100 H55      -5.4793    0.9276  -10.0426   H         1 RES1   0.0000
   101 H56      -6.7681    1.3446   -8.9344   H         1 RES1   0.0000
   102 H57      -6.8981   -0.7975   -8.0885   H         1 RES1   0.0000
   103 H58      -5.1458   -0.9689   -8.0274   H         1 RES1   0.0000
   104 H59      -6.7504   -1.2042  -10.6034   H         1 RES1   0.0000
   105 H60      -6.1823   -2.5744   -9.6522   H         1 RES1   0.0000
   106 H61      -5.0162   -1.4891  -10.3899   H         1 RES1   0.0000
   107 H62      -0.3154    1.8445   -3.4753   H         1 RES1   0.0000
   108 H63      -1.5282    1.2115   -4.5894   H         1 RES1   0.0000
   109 H64       0.4846   -0.1218   -3.0198   H         1 RES1   0.0000
   110 H65      -0.4471   -0.7282   -4.3796   H         1 RES1   0.0000
   111 H66      -1.8988   -1.9318   -3.0382   H         1 RES1   0.0000
   112 H67      -1.5287   -1.0193   -1.5647   H         1 RES1   0.0000
   113 H68      -0.3462   -3.0616   -1.3897   H         1 RES1   0.0000
   114 H69       0.8803   -1.7975   -1.7116   H         1 RES1   0.0000
   115 H70       1.6611   -3.0519   -3.4518   H         1 RES1   0.0000
   116 H71       0.0733   -3.1014   -4.1984   H         1 RES1   0.0000
   117 H72      -0.5791   -5.0573   -2.9971   H         1 RES1   0.0000
   118 H73       0.7322   -4.8642   -1.8284   H         1 RES1   0.0000
   119 H74       1.1927   -6.7280   -3.2225   H         1 RES1   0.0000
   120 H75       2.3980   -5.4750   -3.5137   H         1 RES1   0.0000
   121 H76       0.0631   -6.2294   -5.3360   H         1 RES1   0.0000
   122 H77       1.7765   -6.5285   -5.6146   H         1 RES1   0.0000
   123 H78       1.1641   -4.8710   -5.6391   H         1 RES1   0.0000
   124 C40      10.4528    2.4175    2.4640   C.3       1 RES1   0.0000
   125 C41       9.6969    3.6521    2.9395   C.3       1 RES1   0.0000
   126 C42       8.2814    3.7151    2.3679   C.3       1 RES1   0.0000
   127 C43       7.5616    4.9772    2.8249   C.3       1 RES1   0.0000
   128 C44       6.1321    5.1135    2.3062   C.3       1 RES1   0.0000
   129 C45       5.1720    4.0349    2.8230   C.3       1 RES1   0.0000
   130 C46       3.7346    4.5524    2.7688   C.3       1 RES1   0.0000
   131 C47       2.7042    3.6982    3.5164   C.3       1 RES1   0.0000
   132 N3        2.4469    2.2582    3.2843   N.am      1 RES1   0.0000
   133 C48       2.4146    1.6074    4.6090   C.3       1 RES1   0.0000
   134 C49       1.6917    0.2852    4.7919   C.3       1 RES1   0.0000
   135 C50       1.4712    0.0418    6.2934   C.3       1 RES1   0.0000
   136 C51       2.7148   -0.3587    7.0926   C.3       1 RES1   0.0000
   137 C52       3.1123   -1.8142    6.8632   C.3       1 RES1   0.0000
   138 C53       3.8488   -2.4276    8.0499   C.3       1 RES1   0.0000
   139 C54       3.9863   -3.9467    7.9274   C.3       1 RES1   0.0000
   140 C55       4.9036   -4.3714    6.7855   C.3       1 RES1   0.0000
   141 C56       2.0844    1.6775    2.1397   C.2       1 RES1   0.0000
   142 O4        1.7775    0.4730    2.0171   O.2       1 RES1   0.0000
   143 C57       2.1310    2.5529    0.8802   C.3       1 RES1   0.0000
   144 C58       0.9111    3.4680    0.7689   C.3       1 RES1   0.0000
   145 O5        2.1966    1.7328   -0.2860   O.3       1 RES1   0.0000
   146 C59       3.2920    1.9586   -1.2453   C.3       1 RES1   0.0000
   147 C60       3.9020    3.3648   -1.2374   C.3       1 RES1   0.0000
   148 C61       5.3413    3.4223   -1.7692   C.3       1 RES1   0.0000
   149 C62       2.6863    1.3274   -2.5489   C.2       1 RES1   0.0000
   150 O6        2.1435    0.2352   -2.2960   O.2       1 RES1   0.0000
   151 N4        2.7689    1.8426   -3.7864   N.am      1 RES1   0.0000
   152 C63       3.0338    3.2564   -4.0847   C.3       1 RES1   0.0000
   153 C64       1.7744    4.1295   -3.8822   C.3       1 RES1   0.0000
   154 C65       1.2562    4.7076   -5.2043   C.3       1 RES1   0.0000
   155 C66       0.3836    5.9546   -5.0520   C.3       1 RES1   0.0000
   156 C67      -1.0106    5.7213   -4.4702   C.3       1 RES1   0.0000
   157 C68      -1.7752    7.0469   -4.4290   C.3       1 RES1   0.0000
   158 C69      -3.1859    6.9596   -3.8455   C.3       1 RES1   0.0000
   159 C70      -4.1764    6.2806   -4.7844   C.3       1 RES1   0.0000
   160 C71       2.1322    1.2926   -5.0155   C.3       1 RES1   0.0000
   161 C72       1.8978   -0.1890   -5.3360   C.3       1 RES1   0.0000
   162 C73       0.7968   -0.2421   -6.4223   C.3       1 RES1   0.0000
   163 C74       0.2520   -1.6385   -6.7738   C.3       1 RES1   0.0000
   164 C75      -1.2733   -1.6903   -7.0105   C.3       1 RES1   0.0000
   165 C76      -2.1517   -1.9582   -5.7763   C.3       1 RES1   0.0000
   166 C77      -3.5384   -2.5221   -6.1081   C.3       1 RES1   0.0000
   167 C78      -4.2686   -3.0392   -4.8667   C.3       1 RES1   0.0000
   168 H79      11.4764    2.4285    2.8280   H         1 RES1   0.0000
   169 H80      10.4868    2.3900    1.3769   H         1 RES1   0.0000
   170 H81       9.9730    1.5045    2.8136   H         1 RES1   0.0000
   171 H82      10.2480    4.5422    2.6331   H         1 RES1   0.0000
   172 H83       9.6565    3.6529    4.0310   H         1 RES1   0.0000
   173 H84       7.7258    2.8303    2.6840   H         1 RES1   0.0000
   174 H85       8.3370    3.7061    1.2769   H         1 RES1   0.0000
   175 H86       8.1269    5.8427    2.4791   H         1 RES1   0.0000
   176 H87       7.5544    5.0130    3.9153   H         1 RES1   0.0000
   177 H88       6.1361    5.1190    1.2143   H         1 RES1   0.0000
   178 H89       5.7568    6.0860    2.6315   H         1 RES1   0.0000
   179 H90       5.4218    3.8078    3.8608   H         1 RES1   0.0000
   180 H91       5.2733    3.1106    2.2460   H         1 RES1   0.0000
   181 H92       3.4470    4.7982    1.7472   H         1 RES1   0.0000
   182 H93       3.7043    5.5059    3.3077   H         1 RES1   0.0000
   183 H94       1.7394    4.2136    3.4816   H         1 RES1   0.0000
   184 H95       3.0499    3.7469    4.5475   H         1 RES1   0.0000
   185 H96       1.9077    2.3111    5.2778   H         1 RES1   0.0000
   186 H97       3.4550    1.5184    4.9426   H         1 RES1   0.0000
   187 H98       2.2630   -0.5283    4.3610   H         1 RES1   0.0000
   188 H99       0.7195    0.3270    4.2937   H         1 RES1   0.0000
   189 H100      0.7178   -0.7388    6.4134   H         1 RES1   0.0000
   190 H101      1.0591    0.9496    6.7402   H         1 RES1   0.0000
   191 H102      2.4875   -0.2303    8.1530   H         1 RES1   0.0000
   192 H103      3.5458    0.3102    6.8644   H         1 RES1   0.0000
   193 H104      3.7353   -1.8908    5.9706   H         1 RES1   0.0000
   194 H105      2.2049   -2.4008    6.7046   H         1 RES1   0.0000
   195 H106      3.2840   -2.2058    8.9550   H         1 RES1   0.0000
   196 H107      4.8394   -1.9847    8.1651   H         1 RES1   0.0000
   197 H108      2.9957   -4.3924    7.8057   H         1 RES1   0.0000
   198 H109      4.3939   -4.3288    8.8643   H         1 RES1   0.0000
   199 H110      4.6380   -3.8582    5.8641   H         1 RES1   0.0000
   200 H111      4.8290   -5.4420    6.6111   H         1 RES1   0.0000
   201 H112      5.9347   -4.1308    7.0324   H         1 RES1   0.0000
   202 H113      3.0368    3.1406    0.9775   H         1 RES1   0.0000
   203 H114     -0.0050    2.9013    0.9389   H         1 RES1   0.0000
   204 H115      0.8756    3.8723   -0.2407   H         1 RES1   0.0000
   205 H116      0.9722    4.2913    1.4730   H         1 RES1   0.0000
   206 H117      4.0930    1.2539   -0.9533   H         1 RES1   0.0000
   207 H118      4.0021    3.7243   -0.2153   H         1 RES1   0.0000
   208 H119      3.2336    4.0676   -1.7283   H         1 RES1   0.0000
   209 H120      6.0158    2.9707   -1.0455   H         1 RES1   0.0000
   210 H121      5.6397    4.4635   -1.8823   H         1 RES1   0.0000
   211 H122      5.4948    2.9101   -2.7157   H         1 RES1   0.0000
   212 H123      3.3370    3.3203   -5.1322   H         1 RES1   0.0000
   213 H124      3.8705    3.6361   -3.5187   H         1 RES1   0.0000
   214 H125      1.9968    4.9646   -3.2195   H         1 RES1   0.0000
   215 H126      1.0025    3.5300   -3.3965   H         1 RES1   0.0000
   216 H127      2.1247    5.0044   -5.7958   H         1 RES1   0.0000
   217 H128      0.7059    3.9532   -5.7740   H         1 RES1   0.0000
   218 H129      0.2625    6.3917   -6.0443   H         1 RES1   0.0000
   219 H130      0.9136    6.6909   -4.4430   H         1 RES1   0.0000
   220 H131     -0.9384    5.3065   -3.4598   H         1 RES1   0.0000
   221 H132     -1.5439    5.0027   -5.0980   H         1 RES1   0.0000
   222 H133     -1.8432    7.4439   -5.4439   H         1 RES1   0.0000
   223 H134     -1.1958    7.7575   -3.8350   H         1 RES1   0.0000
   224 H135     -3.5337    7.9765   -3.6547   H         1 RES1   0.0000
   225 H136     -3.1611    6.4339   -2.8858   H         1 RES1   0.0000
   226 H137     -4.1996    6.8010   -5.7386   H         1 RES1   0.0000
   227 H138     -5.1790    6.3073   -4.3645   H         1 RES1   0.0000
   228 H139     -3.9048    5.2418   -4.9657   H         1 RES1   0.0000
   229 H140      1.1653    1.7967   -5.0860   H         1 RES1   0.0000
   230 H141      2.7441    1.6664   -5.8369   H         1 RES1   0.0000
   231 H142      1.6150   -0.7514   -4.4546   H         1 RES1   0.0000
   232 H143      2.8045   -0.6434   -5.7348   H         1 RES1   0.0000
   233 H144      1.1970    0.2104   -7.3322   H         1 RES1   0.0000
   234 H145     -0.0487    0.3743   -6.1139   H         1 RES1   0.0000
   235 H146      0.5403   -2.3607   -6.0122   H         1 RES1   0.0000
   236 H147      0.7349   -1.9694   -7.6905   H         1 RES1   0.0000
   237 H148     -1.4653   -2.5017   -7.7137   H         1 RES1   0.0000
   238 H149     -1.5833   -0.7641   -7.4973   H         1 RES1   0.0000
   239 H150     -2.3123   -1.0439   -5.2004   H         1 RES1   0.0000
   240 H151     -1.6585   -2.6978   -5.1406   H         1 RES1   0.0000
   241 H152     -3.4403   -3.3512   -6.8076   H         1 RES1   0.0000
   242 H153     -4.1354   -1.7558   -6.5999   H         1 RES1   0.0000
   243 H154     -5.3197   -3.2063   -5.0884   H         1 RES1   0.0000
   244 H155     -4.2049   -2.3475   -4.0230   H         1 RES1   0.0000
   245 H156     -3.8502   -3.9935   -4.5505   H         1 RES1   0.0000
   246 C79      -9.4491   -3.9185    1.9800   C.3       1 RES1   0.0000
   247 C80      -8.8789   -3.1578    3.1729   C.3       1 RES1   0.0000
   248 C81      -8.2947   -4.0551    4.2739   C.3       1 RES1   0.0000
   249 C82      -6.8023   -4.3904    4.1318   C.3       1 RES1   0.0000
   250 C83      -6.5239   -5.5901    3.2261   C.3       1 RES1   0.0000
   251 C84      -5.0495   -5.9997    3.1612   C.3       1 RES1   0.0000
   252 C85      -4.1324   -4.8854    2.6273   C.3       1 RES1   0.0000
   253 C86      -3.0986   -5.4133    1.6163   C.3       1 RES1   0.0000
   254 N5       -2.6631   -4.3766    0.6928   N.am      1 RES1   0.0000
   255 C87      -3.4210   -4.2537   -0.5583   C.3       1 RES1   0.0000
   256 C88      -4.9449   -4.2553   -0.5147   C.3       1 RES1   0.0000
   257 C89      -5.6027   -2.9074   -0.2118   C.3       1 RES1   0.0000
   258 C90      -6.8928   -2.7485   -1.0162   C.3       1 RES1   0.0000
   259 C91      -7.6596   -1.4617   -0.6885   C.3       1 RES1   0.0000
   260 C92      -8.5949   -1.0973   -1.8447   C.3       1 RES1   0.0000
   261 C93      -9.6556   -0.0554   -1.4963   C.3       1 RES1   0.0000
   262 C94      -9.0836    1.2284   -0.9018   C.3       1 RES1   0.0000
   263 C95      -1.5195   -3.6946    0.7783   C.2       1 RES1   0.0000
   264 O7       -1.4053   -2.5250    0.3400   O.2       1 RES1   0.0000
   265 C96      -0.1886   -4.3123    1.2420   C.3       1 RES1   0.0000
   266 C97      -0.0401   -5.7915    1.6104   C.3       1 RES1   0.0000
   267 O8        0.2375   -3.4071    2.2411   O.3       1 RES1   0.0000
   268 C98       1.6085   -3.4341    2.5905   C.3       1 RES1   0.0000
   269 C99       1.5668   -3.0919    4.0774   C.3       1 RES1   0.0000
   270 C100      0.9803   -4.2736    4.8492   C.3       1 RES1   0.0000
   271 C101      2.3591   -2.5858    1.5440   C.2       1 RES1   0.0000
   272 O9        1.6600   -2.0992    0.6181   O.2       1 RES1   0.0000
   273 N6        3.6844   -2.5890    1.4360   N.am      1 RES1   0.0000
   274 C102      4.2444   -2.2677    0.1218   C.3       1 RES1   0.0000
   275 C103      3.9052   -3.3306   -0.9324   C.3       1 RES1   0.0000
   276 C104      4.6284   -4.6678   -0.7425   C.3       1 RES1   0.0000
   277 C105      4.0496   -5.6042    0.3165   C.3       1 RES1   0.0000
   278 C106      4.9195   -6.8531    0.4927   C.3       1 RES1   0.0000
   279 C107      4.3757   -7.7993    1.5661   C.3       1 RES1   0.0000
   280 C108      4.6476   -7.2925    2.9837   C.3       1 RES1   0.0000
   281 C109      3.7942   -8.0087    4.0237   C.3       1 RES1   0.0000
   282 C110      4.6190   -2.6211    2.5476   C.3       1 RES1   0.0000
   283 C111      5.0516   -1.1866    2.8901   C.3       1 RES1   0.0000
   284 C112      6.0322   -1.1036    4.0623   C.3       1 RES1   0.0000
   285 C113      6.7656    0.2409    4.0799   C.3       1 RES1   0.0000
   286 C114      7.6628    0.3857    5.3178   C.3       1 RES1   0.0000
   287 C115      6.9261    0.9526    6.5322   C.3       1 RES1   0.0000
   288 C116      6.5663    2.4382    6.3606   C.3       1 RES1   0.0000
   289 C117      7.2355    3.3217    7.4065   C.3       1 RES1   0.0000
   290 H157     -9.9383   -3.2340    1.2881   H         1 RES1   0.0000
   291 H158    -10.1898   -4.6417    2.3120   H         1 RES1   0.0000
   292 H159     -8.6736   -4.4506    1.4359   H         1 RES1   0.0000
   293 H160     -9.6843   -2.5662    3.6111   H         1 RES1   0.0000
   294 H161     -8.1164   -2.4515    2.8300   H         1 RES1   0.0000
   295 H162     -8.8727   -4.9782    4.3226   H         1 RES1   0.0000
   296 H163     -8.4332   -3.5481    5.2312   H         1 RES1   0.0000
   297 H164     -6.4024   -4.6088    5.1248   H         1 RES1   0.0000
   298 H165     -6.2795   -3.5021    3.7634   H         1 RES1   0.0000
   299 H166     -6.8782   -5.3819    2.2168   H         1 RES1   0.0000
   300 H167     -7.0930   -6.4420    3.6011   H         1 RES1   0.0000
   301 H168     -4.9866   -6.8781    2.5154   H         1 RES1   0.0000
   302 H169     -4.7229   -6.3057    4.1550   H         1 RES1   0.0000
   303 H170     -3.6108   -4.4103    3.4584   H         1 RES1   0.0000
   304 H171     -4.7404   -4.1217    2.1514   H         1 RES1   0.0000
   305 H172     -3.5326   -6.2274    1.0322   H         1 RES1   0.0000
   306 H173     -2.2591   -5.7961    2.1790   H         1 RES1   0.0000
   307 H174     -3.1184   -5.1271   -1.1522   H         1 RES1   0.0000
   308 H175     -3.0591   -3.3510   -1.0516   H         1 RES1   0.0000
   309 H176     -5.3109   -5.0107    0.1737   H         1 RES1   0.0000
   310 H177     -5.2745   -4.5628   -1.5085   H         1 RES1   0.0000
   311 H178     -4.9188   -2.0940   -0.4688   H         1 RES1   0.0000
   312 H179     -5.8508   -2.8212    0.8473   H         1 RES1   0.0000
   313 H180     -7.5368   -3.6081   -0.8155   H         1 RES1   0.0000
   314 H181     -6.6417   -2.7628   -2.0825   H         1 RES1   0.0000
   315 H182     -6.9562   -0.6381   -0.5228   H         1 RES1   0.0000
   316 H183     -8.2435   -1.6032    0.2242   H         1 RES1   0.0000
   317 H184     -9.1045   -2.0011   -2.1820   H         1 RES1   0.0000
   318 H185     -7.9955   -0.7304   -2.6817   H         1 RES1   0.0000
   319 H186    -10.3726   -0.4825   -0.7942   H         1 RES1   0.0000
   320 H187    -10.1884    0.1929   -2.4152   H         1 RES1   0.0000
   321 H188     -8.7634    1.0828    0.1295   H         1 RES1   0.0000
   322 H189     -9.8403    2.0130   -0.9078   H         1 RES1   0.0000
   323 H190     -8.2293    1.5692   -1.4931   H         1 RES1   0.0000
   324 H191      0.4318   -4.1604    0.3360   H         1 RES1   0.0000
   325 H192     -0.3352   -5.9961    2.6360   H         1 RES1   0.0000
   326 H193      1.0067   -6.0817    1.5228   H         1 RES1   0.0000
   327 H194     -0.6110   -6.4145    0.9255   H         1 RES1   0.0000
   328 H195      2.0210   -4.4493    2.4841   H         1 RES1   0.0000
   329 H196      0.9052   -2.2324    4.1846   H         1 RES1   0.0000
   330 H197      2.5501   -2.8460    4.4596   H         1 RES1   0.0000
   331 H198     -0.0302   -4.4902    4.5094   H         1 RES1   0.0000
   332 H199      1.5930   -5.1647    4.7249   H         1 RES1   0.0000
   333 H200      0.9308   -4.0392    5.9066   H         1 RES1   0.0000
   334 H201      5.3265   -2.1927    0.2294   H         1 RES1   0.0000
   335 H202      3.8586   -1.2978   -0.2145   H         1 RES1   0.0000
   336 H203      4.2176   -2.9241   -1.8966   H         1 RES1   0.0000
   337 H204      2.8225   -3.4804   -0.9637   H         1 RES1   0.0000
   338 H205      5.6774   -4.4765   -0.5101   H         1 RES1   0.0000
   339 H206      4.6081   -5.1945   -1.6979   H         1 RES1   0.0000
   340 H207      3.0476   -5.9227    0.0118   H         1 RES1   0.0000
   341 H208      3.9627   -5.0768    1.2673   H         1 RES1   0.0000
   342 H209      5.9378   -6.5625    0.7615   H         1 RES1   0.0000
   343 H210      4.9670   -7.3800   -0.4624   H         1 RES1   0.0000
   344 H211      4.8372   -8.7806    1.4515   H         1 RES1   0.0000
   345 H212      3.3001   -7.9344    1.4207   H         1 RES1   0.0000
   346 H213      4.4575   -6.2172    3.0337   H         1 RES1   0.0000
   347 H214      5.7015   -7.4443    3.2153   H         1 RES1   0.0000
   348 H215      2.7325   -7.8466    3.8366   H         1 RES1   0.0000
   349 H216      4.0276   -7.6536    5.0266   H         1 RES1   0.0000
   350 H217      3.9817   -9.0783    3.9876   H         1 RES1   0.0000
   351 H218      5.4846   -3.2206    2.2551   H         1 RES1   0.0000
   352 H219      4.1462   -3.1008    3.4011   H         1 RES1   0.0000
   353 H220      4.1600   -0.5810    3.0816   H         1 RES1   0.0000
   354 H221      5.5515   -0.7631    2.0168   H         1 RES1   0.0000
   355 H222      6.7739   -1.9009    3.9786   H         1 RES1   0.0000
   356 H223      5.5203   -1.2351    5.0161   H         1 RES1   0.0000
   357 H224      6.0367    1.0558    4.0482   H         1 RES1   0.0000
   358 H225      7.3792    0.3259    3.1799   H         1 RES1   0.0000
   359 H226      8.5060    1.0412    5.0896   H         1 RES1   0.0000
   360 H227      8.0686   -0.5970    5.5680   H         1 RES1   0.0000
   361 H228      7.5761    0.8486    7.4004   H         1 RES1   0.0000
   362 H229      6.0303    0.3573    6.7272   H         1 RES1   0.0000
   363 H230      5.4835    2.5691    6.4235   H         1 RES1   0.0000
   364 H231      6.8829    2.7695    5.3693   H         1 RES1   0.0000
   365 H232      6.9781    2.9901    8.4093   H         1 RES1   0.0000
   366 H233      6.9216    4.3571    7.2947   H         1 RES1   0.0000
   367 H234      8.3153    3.2788    7.2975   H         1 RES1   0.0000
@<TRIPOS>BOND
     1     1    20    1
     2     1    23    1
     3     1    28    1
     4     1   142    1
     5     1   145    1
     6     1   150    1
     7     1   264    1
     8     1   267    1
     9     1   272    1
    10     2     3    1
    11     2    46    1
    12     2    47    1
    13     2    48    1
    14     3     4    1
    15     3    49    1
    16     3    50    1
    17     4     5    1
    18     4    51    1
    19     4    52    1
    20     5     6    1
    21     5    53    1
    22     5    54    1
    23     6     7    1
    24     6    55    1
    25     6    56    1
    26     7     8    1
    27     7    57    1
    28     7    58    1
    29     8     9    1
    30     8    59    1
    31     8    60    1
    32     9    10    1
    33     9    61    1
    34     9    62    1
    35    10    11    1
    36    10    19    1
    37    11    12    1
    38    11    63    1
    39    11    64    1
    40    12    13    1
    41    12    65    1
    42    12    66    1
    43    13    14    1
    44    13    67    1
    45    13    68    1
    46    14    15    1
    47    14    69    1
    48    14    70    1
    49    15    16    1
    50    15    71    1
    51    15    72    1
    52    16    17    1
    53    16    73    1
    54    16    74    1
    55    17    18    1
    56    17    75    1
    57    17    76    1
    58    18    77    1
    59    18    78    1
    60    18    79    1
    61    19    20    2
    62    19    21    1
    63    21    22    1
    64    21    23    1
    65    21    80    1
    66    22    81    1
    67    22    82    1
    68    22    83    1
    69    23    24    1
    70    24    25    1
    71    24    27    1
    72    24    84    1
    73    25    26    1
    74    25    85    1
    75    25    86    1
    76    26    87    1
    77    26    88    1
    78    26    89    1
    79    27    28    2
    80    27    29    1
    81    29    30    1
    82    29    38    1
    83    30    31    1
    84    30    90    1
    85    30    91    1
    86    31    32    1
    87    31    92    1
    88    31    93    1
    89    32    33    1
    90    32    94    1
    91    32    95    1
    92    33    34    1
    93    33    96    1
    94    33    97    1
    95    34    35    1
    96    34    98    1
    97    34    99    1
    98    35    36    1
    99    35   100    1
   100    35   101    1
   101    36    37    1
   102    36   102    1
   103    36   103    1
   104    37   104    1
   105    37   105    1
   106    37   106    1
   107    38    39    1
   108    38   107    1
   109    38   108    1
   110    39    40    1
   111    39   109    1
   112    39   110    1
   113    40    41    1
   114    40   111    1
   115    40   112    1
   116    41    42    1
   117    41   113    1
   118    41   114    1
   119    42    43    1
   120    42   115    1
   121    42   116    1
   122    43    44    1
   123    43   117    1
   124    43   118    1
   125    44    45    1
   126    44   119    1
   127    44   120    1
   128    45   121    1
   129    45   122    1
   130    45   123    1
   131   124   125    1
   132   124   168    1
   133   124   169    1
   134   124   170    1
   135   125   126    1
   136   125   171    1
   137   125   172    1
   138   126   127    1
   139   126   173    1
   140   126   174    1
   141   127   128    1
   142   127   175    1
   143   127   176    1
   144   128   129    1
   145   128   177    1
   146   128   178    1
   147   129   130    1
   148   129   179    1
   149   129   180    1
   150   130   131    1
   151   130   181    1
   152   130   182    1
   153   131   132    1
   154   131   183    1
   155   131   184    1
   156   132   133    1
   157   132   141    1
   158   133   134    1
   159   133   185    1
   160   133   186    1
   161   134   135    1
   162   134   187    1
   163   134   188    1
   164   135   136    1
   165   135   189    1
   166   135   190    1
   167   136   137    1
   168   136   191    1
   169   136   192    1
   170   137   138    1
   171   137   193    1
   172   137   194    1
   173   138   139    1
   174   138   195    1
   175   138   196    1
   176   139   140    1
   177   139   197    1
   178   139   198    1
   179   140   199    1
   180   140   200    1
   181   140   201    1
   182   141   142    2
   183   141   143    1
   184   143   144    1
   185   143   145    1
   186   143   202    1
   187   144   203    1
   188   144   204    1
   189   144   205    1
   190   145   146    1
   191   146   147    1
   192   146   149    1
   193   146   206    1
   194   147   148    1
   195   147   207    1
   196   147   208    1
   197   148   209    1
   198   148   210    1
   199   148   211    1
   200   149   150    2
   201   149   151    1
   202   151   152    1
   203   151   160    1
   204   152   153    1
   205   152   212    1
   206   152   213    1
   207   153   154    1
   208   153   214    1
   209   153   215    1
   210   154   155    1
   211   154   216    1
   212   154   217    1
   213   155   156    1
   214   155   218    1
   215   155   219    1
   216   156   157    1
   217   156   220    1
   218   156   221    1
   219   157   158    1
   220   157   222    1
   221   157   223    1
   222   158   159    1
   223   158   224    1
   224   158   225    1
   225   159   226    1
   226   159   227    1
   227   159   228    1
   228   160   161    1
   229   160   229    1
   230   160   230    1
   231   161   162    1
   232   161   231    1
   233   161   232    1
   234   162   163    1
   235   162   233    1
   236   162   234    1
   237   163   164    1
   238   163   235    1
   239   163   236    1
   240   164   165    1
   241   164   237    1
   242   164   238    1
   243   165   166    1
   244   165   239    1
   245   165   240    1
   246   166   167    1
   247   166   241    1
   248   166   242    1
   249   167   243    1
   250   167   244    1
   251   167   245    1
   252   246   247    1
   253   246   290    1
   254   246   291    1
   255   246   292    1
   256   247   248    1
   257   247   293    1
   258   247   294    1
   259   248   249    1
   260   248   295    1
   261   248   296    1
   262   249   250    1
   263   249   297    1
   264   249   298    1
   265   250   251    1
   266   250   299    1
   267   250   300    1
   268   251   252    1
   269   251   301    1
   270   251   302    1
   271   252   253    1
   272   252   303    1
   273   252   304    1
   274   253   254    1
   275   253   305    1
   276   253   306    1
   277   254   255    1
   278   254   263    1
   279   255   256    1
   280   255   307    1
   281   255   308    1
   282   256   257    1
   283   256   309    1
   284   256   310    1
   285   257   258    1
   286   257   311    1
   287   257   312    1
   288   258   259    1
   289   258   313    1
   290   258   314    1
   291   259   260    1
   292   259   315    1
   293   259   316    1
   294   260   261    1
   295   260   317    1
   296   260   318    1
   297   261   262    1
   298   261   319    1
   299   261   320    1
   300   262   321    1
   301   262   322    1
   302   262   323    1
   303   263   264    2
   304   263   265    1
   305   265   266    1
   306   265   267    1
   307   265   324    1
   308   266   325    1
   309   266   326    1
   310   266   327    1
   311   267   268    1
   312   268   269    1
   313   268   271    1
   314   268   328    1
   315   269   270    1
   316   269   329    1
   317   269   330    1
   318   270   331    1
   319   270   332    1
   320   270   333    1
   321   271   272    2
   322   271   273    1
   323   273   274    1
   324   273   282    1
   325   274   275    1
   326   274   334    1
   327   274   335    1
   328   275   276    1
   329   275   336    1
   330   275   337    1
   331   276   277    1
   332   276   338    1
   333   276   339    1
   334   277   278    1
   335   277   340    1
   336   277   341    1
   337   278   279    1
   338   278   342    1
   339   278   343    1
   340   279   280    1
   341   279   344    1
   342   279   345    1
   343   280   281    1
   344   280   346    1
   345   280   347    1
   346   281   348    1
   347   281   349    1
   348   281   350    1
   349   282   283    1
   350   282   351    1
   351   282   352    1
   352   283   284    1
   353   283   353    1
   354   283   354    1
   355   284   285    1
   356   284   355    1
   357   284   356    1
   358   285   286    1
   359   285   357    1
   360   285   358    1
   361   286   287    1
   362   286   359    1
   363   286   360    1
   364   287   288    1
   365   287   361    1
   366   287   362    1
   367   288   289    1
   368   288   363    1
   369   288   364    1
   370   289   365    1
   371   289   366    1
   372   289   367    1
@<TRIPOS>SUBSTRUCTURE
     1 RES1      367 GROUP             0 ****  ****    0  
