@<TRIPOS>MOLECULE
am_c3_9H2O_c0_0_nunpairedes_0_charge_3 Charge: 3 Unpaired_Electrons: 2 XTB_Unpaired_Electrons: 0 XTB_Charge: 3
   136   150     1     0     0
SMALL
NoCharges
****
Generated from Architector

@<TRIPOS>ATOM
     1 Pr1      -0.0214    0.0313    0.0131   Pr        1 RES1   0.0000
     2 C1       -3.8190    0.7741   -3.7991   C.3       1 RES1   0.0000
     3 N1       -2.4039    1.0089   -3.5667   N.am      1 RES1   0.0000
     4 C2       -1.9248    1.1779   -2.3249   C.2       1 RES1   0.0000
     5 O1       -0.7171    1.1448   -2.0294   O.2       1 RES1   0.0000
     6 C3       -2.8279    1.5054   -1.1559   C.ar      1 RES1   0.0000
     7 C4       -3.8839    2.4110   -1.1862   C.ar      1 RES1   0.0000
     8 C5       -4.3519    2.9046    0.0228   C.ar      1 RES1   0.0000
     9 C6       -3.7675    2.5009    1.2130   C.ar      1 RES1   0.0000
    10 C7       -2.7797    1.5173    1.1708   C.ar      1 RES1   0.0000
    11 C8       -1.9871    1.0242    2.3696   C.2       1 RES1   0.0000
    12 O2       -0.8060    0.6886    2.1487   O.2       1 RES1   0.0000
    13 N2       -2.5487    1.0327    3.5890   N.am      1 RES1   0.0000
    14 C9       -3.9970    1.0343    3.7444   C.3       1 RES1   0.0000
    15 C10      -1.8231    0.9271    4.8246   C.ar      1 RES1   0.0000
    16 C11      -0.4347    0.7766    4.8887   C.ar      1 RES1   0.0000
    17 C12       0.2163    0.6925    6.1110   C.ar      1 RES1   0.0000
    18 C13      -0.4807    0.7489    7.3048   C.ar      1 RES1   0.0000
    19 C14      -1.8531    0.9156    7.2522   C.ar      1 RES1   0.0000
    20 C15      -2.5152    1.0104    6.0403   C.ar      1 RES1   0.0000
    21 N3       -2.3309    1.0534    0.0021   N.ar      1 RES1   0.0000
    22 C16      -1.5847    1.0367   -4.7478   C.ar      1 RES1   0.0000
    23 C17      -0.2473    1.4363   -4.7028   C.ar      1 RES1   0.0000
    24 C18       0.5161    1.5173   -5.8563   C.ar      1 RES1   0.0000
    25 C19      -0.0213    1.2041   -7.0926   C.ar      1 RES1   0.0000
    26 C20      -1.3469    0.8105   -7.1495   C.ar      1 RES1   0.0000
    27 C21      -2.1232    0.7264   -6.0033   C.ar      1 RES1   0.0000
    28 H1       -4.3594    0.6225   -2.8698   H         1 RES1   0.0000
    29 H2       -3.9268   -0.1334   -4.3963   H         1 RES1   0.0000
    30 H3       -4.2504    1.6208   -4.3377   H         1 RES1   0.0000
    31 H4       -4.2739    2.7932   -2.1141   H         1 RES1   0.0000
    32 H5       -5.1485    3.6286    0.0261   H         1 RES1   0.0000
    33 H6       -4.0390    2.9836    2.1360   H         1 RES1   0.0000
    34 H7       -4.2739    0.2039    4.3981   H         1 RES1   0.0000
    35 H8       -4.5002    0.8928    2.7929   H         1 RES1   0.0000
    36 H9       -4.3223    1.9744    4.1944   H         1 RES1   0.0000
    37 H10       0.1590    0.7005    3.9926   H         1 RES1   0.0000
    38 H11       1.2884    0.5717    6.1284   H         1 RES1   0.0000
    39 H12       0.0227    0.6680    8.2565   H         1 RES1   0.0000
    40 H13      -2.4117    0.9702    8.1731   H         1 RES1   0.0000
    41 H14      -3.5798    1.1531    6.0962   H         1 RES1   0.0000
    42 H15       0.2174    1.7145   -3.7727   H         1 RES1   0.0000
    43 H16       1.5381    1.8548   -5.7757   H         1 RES1   0.0000
    44 H17       0.5624    1.2845   -7.9971   H         1 RES1   0.0000
    45 H18      -1.7862    0.5859   -8.1093   H         1 RES1   0.0000
    46 H19      -3.1499    0.4345   -6.1454   H         1 RES1   0.0000
    47 C22       1.4468    3.9750    3.4630   C.3       1 RES1   0.0000
    48 N4        0.6486    3.6841    2.2808   N.am      1 RES1   0.0000
    49 C23       0.9828    2.7152    1.4127   C.2       1 RES1   0.0000
    50 O3        0.3121    2.4064    0.4088   O.2       1 RES1   0.0000
    51 C24       2.2473    1.8878    1.5950   C.ar      1 RES1   0.0000
    52 C25       3.5082    2.3787    1.9277   C.ar      1 RES1   0.0000
    53 C26       4.5619    1.4803    1.9440   C.ar      1 RES1   0.0000
    54 C27       4.3682    0.1531    1.5867   C.ar      1 RES1   0.0000
    55 C28       3.0953   -0.2604    1.1990   C.ar      1 RES1   0.0000
    56 C29       2.6237   -1.6107    0.6527   C.2       1 RES1   0.0000
    57 O4        1.3887   -1.7361    0.5496   O.2       1 RES1   0.0000
    58 N5        3.4737   -2.5615    0.2128   N.am      1 RES1   0.0000
    59 C30       4.8668   -2.6821    0.6185   C.3       1 RES1   0.0000
    60 C31       3.0287   -3.6191   -0.6491   C.ar      1 RES1   0.0000
    61 C32       1.7555   -4.1701   -0.5469   C.ar      1 RES1   0.0000
    62 C33       1.3478   -5.1586   -1.4288   C.ar      1 RES1   0.0000
    63 C34       2.2079   -5.6483   -2.3946   C.ar      1 RES1   0.0000
    64 C35       3.5027   -5.1574   -2.4489   C.ar      1 RES1   0.0000
    65 C36       3.9122   -4.1430   -1.6003   C.ar      1 RES1   0.0000
    66 N6        2.0742    0.6144    1.2289   N.ar      1 RES1   0.0000
    67 C37      -0.5027    4.5379    2.1454   C.ar      1 RES1   0.0000
    68 C38      -1.2807    4.5618    0.9869   C.ar      1 RES1   0.0000
    69 C39      -2.4100    5.3612    0.8983   C.ar      1 RES1   0.0000
    70 C40      -2.8070    6.1647    1.9501   C.ar      1 RES1   0.0000
    71 C41      -2.0088    6.1975    3.0789   C.ar      1 RES1   0.0000
    72 C42      -0.8732    5.4112    3.1785   C.ar      1 RES1   0.0000
    73 H20       2.1998    3.2202    3.6581   H         1 RES1   0.0000
    74 H21       0.7977    4.0127    4.3390   H         1 RES1   0.0000
    75 H22       1.9243    4.9487    3.3194   H         1 RES1   0.0000
    76 H23       3.6810    3.4213    2.1339   H         1 RES1   0.0000
    77 H24       5.5429    1.8238    2.2210   H         1 RES1   0.0000
    78 H25       5.2181   -0.5019    1.5780   H         1 RES1   0.0000
    79 H26       4.9471   -2.5306    1.6941   H         1 RES1   0.0000
    80 H27       5.5147   -1.9907    0.0738   H         1 RES1   0.0000
    81 H28       5.1996   -3.7002    0.4071   H         1 RES1   0.0000
    82 H29       1.0917   -3.8632    0.2438   H         1 RES1   0.0000
    83 H30       0.3551   -5.5671   -1.3262   H         1 RES1   0.0000
    84 H31       1.8934   -6.4221   -3.0778   H         1 RES1   0.0000
    85 H32       4.2008   -5.5886   -3.1494   H         1 RES1   0.0000
    86 H33       4.9279   -3.7878   -1.6874   H         1 RES1   0.0000
    87 H34      -0.9977    3.9772    0.1286   H         1 RES1   0.0000
    88 H35      -2.9711    5.3698   -0.0218   H         1 RES1   0.0000
    89 H36      -3.6910    6.7797    1.8917   H         1 RES1   0.0000
    90 H37      -2.2631    6.8647    3.8864   H         1 RES1   0.0000
    91 H38      -0.2953    5.5398    4.0766   H         1 RES1   0.0000
    92 C43       1.7541   -1.5113   -5.1511   C.3       1 RES1   0.0000
    93 N7        2.1608   -1.1469   -3.8039   N.am      1 RES1   0.0000
    94 C44       1.2849   -1.1163   -2.7809   C.2       1 RES1   0.0000
    95 O5        1.4985   -0.4686   -1.7388   O.2       1 RES1   0.0000
    96 C45      -0.0158   -1.9076   -2.8120   C.ar      1 RES1   0.0000
    97 C46      -0.4014   -2.9174   -3.6969   C.ar      1 RES1   0.0000
    98 C47      -1.6695   -3.4655   -3.5766   C.ar      1 RES1   0.0000
    99 C48      -2.4993   -3.0910   -2.5343   C.ar      1 RES1   0.0000
   100 C49      -1.9911   -2.1970   -1.6006   C.ar      1 RES1   0.0000
   101 C50      -2.6009   -1.9163   -0.2475   C.2       1 RES1   0.0000
   102 O6       -1.8075   -1.5788    0.6538   O.2       1 RES1   0.0000
   103 N8       -3.9108   -2.0327   -0.0107   N.am      1 RES1   0.0000
   104 C51      -4.4173   -1.7031    1.3163   C.3       1 RES1   0.0000
   105 C52      -5.0039   -2.3776   -0.8848   C.ar      1 RES1   0.0000
   106 C53      -5.4017   -3.7026   -1.0315   C.ar      1 RES1   0.0000
   107 C54      -6.5345   -3.9981   -1.7736   C.ar      1 RES1   0.0000
   108 C55      -7.2891   -2.9867   -2.3419   C.ar      1 RES1   0.0000
   109 C56      -6.9279   -1.6671   -2.1322   C.ar      1 RES1   0.0000
   110 C57      -5.7929   -1.3566   -1.4024   C.ar      1 RES1   0.0000
   111 N9       -0.8022   -1.6066   -1.7708   N.ar      1 RES1   0.0000
   112 C58       3.5227   -0.7061   -3.6934   C.ar      1 RES1   0.0000
   113 C59       4.3549   -0.7095   -4.8209   C.ar      1 RES1   0.0000
   114 C60       5.6712   -0.2875   -4.7524   C.ar      1 RES1   0.0000
   115 C61       6.2265    0.1292   -3.5578   C.ar      1 RES1   0.0000
   116 C62       5.4244    0.1124   -2.4311   C.ar      1 RES1   0.0000
   117 C63       4.0996   -0.2898   -2.4896   C.ar      1 RES1   0.0000
   118 H39       2.1474   -0.7650   -5.8418   H         1 RES1   0.0000
   119 H40       0.6747   -1.5010   -5.2586   H         1 RES1   0.0000
   120 H41       2.1551   -2.4921   -5.4176   H         1 RES1   0.0000
   121 H42       0.2607   -3.3216   -4.4376   H         1 RES1   0.0000
   122 H43      -2.0003   -4.2062   -4.2836   H         1 RES1   0.0000
   123 H44      -3.4809   -3.5159   -2.4159   H         1 RES1   0.0000
   124 H45      -3.5913   -1.4414    1.9763   H         1 RES1   0.0000
   125 H46      -4.9585   -2.5586    1.7242   H         1 RES1   0.0000
   126 H47      -5.1165   -0.8680    1.2209   H         1 RES1   0.0000
   127 H48      -4.8473   -4.4943   -0.5468   H         1 RES1   0.0000
   128 H49      -6.8398   -5.0236   -1.8815   H         1 RES1   0.0000
   129 H50      -8.1716   -3.2154   -2.9159   H         1 RES1   0.0000
   130 H51      -7.5536   -0.8803   -2.5146   H         1 RES1   0.0000
   131 H52      -5.5325   -0.3267   -1.1913   H         1 RES1   0.0000
   132 H53       4.0284   -1.0373   -5.7914   H         1 RES1   0.0000
   133 H54       6.2611   -0.2891   -5.6534   H         1 RES1   0.0000
   134 H55       7.2535    0.4534   -3.5029   H         1 RES1   0.0000
   135 H56       5.8430    0.4351   -1.4892   H         1 RES1   0.0000
   136 H57       3.5236   -0.2509   -1.5811   H         1 RES1   0.0000
@<TRIPOS>BOND
     1     1     5    1
     2     1    12    1
     3     1    21    1
     4     1    50    1
     5     1    57    1
     6     1    66    1
     7     1    95    1
     8     1   102    1
     9     1   111    1
    10     2     3    1
    11     2    28    1
    12     2    29    1
    13     2    30    1
    14     3     4    1
    15     3    22    1
    16     4     5    2
    17     4     6    1
    18     6     7    1
    19     6    21    2
    20     7     8    2
    21     7    31    1
    22     8     9    1
    23     8    32    1
    24     9    10    2
    25     9    33    1
    26    10    11    1
    27    10    21    1
    28    11    12    2
    29    11    13    1
    30    13    14    1
    31    13    15    1
    32    14    34    1
    33    14    35    1
    34    14    36    1
    35    15    16    1
    36    15    20    2
    37    16    17    2
    38    16    37    1
    39    17    18    1
    40    17    38    1
    41    18    19    2
    42    18    39    1
    43    19    20    1
    44    19    40    1
    45    20    41    1
    46    22    23    1
    47    22    27    2
    48    23    24    2
    49    23    42    1
    50    24    25    1
    51    24    43    1
    52    25    26    2
    53    25    44    1
    54    26    27    1
    55    26    45    1
    56    27    46    1
    57    47    48    1
    58    47    73    1
    59    47    74    1
    60    47    75    1
    61    48    49    1
    62    48    67    1
    63    49    50    2
    64    49    51    1
    65    51    52    1
    66    51    66    2
    67    52    53    2
    68    52    76    1
    69    53    54    1
    70    53    77    1
    71    54    55    2
    72    54    78    1
    73    55    56    1
    74    55    66    1
    75    56    57    2
    76    56    58    1
    77    58    59    1
    78    58    60    1
    79    59    79    1
    80    59    80    1
    81    59    81    1
    82    60    61    1
    83    60    65    2
    84    61    62    2
    85    61    82    1
    86    62    63    1
    87    62    83    1
    88    63    64    2
    89    63    84    1
    90    64    65    1
    91    64    85    1
    92    65    86    1
    93    67    68    1
    94    67    72    2
    95    68    69    2
    96    68    87    1
    97    69    70    1
    98    69    88    1
    99    70    71    2
   100    70    89    1
   101    71    72    1
   102    71    90    1
   103    72    91    1
   104    92    93    1
   105    92   118    1
   106    92   119    1
   107    92   120    1
   108    93    94    1
   109    93   112    1
   110    94    95    2
   111    94    96    1
   112    96    97    1
   113    96   111    2
   114    97    98    2
   115    97   121    1
   116    98    99    1
   117    98   122    1
   118    99   100    2
   119    99   123    1
   120   100   101    1
   121   100   111    1
   122   101   102    2
   123   101   103    1
   124   103   104    1
   125   103   105    1
   126   104   124    1
   127   104   125    1
   128   104   126    1
   129   105   106    1
   130   105   110    2
   131   106   107    2
   132   106   127    1
   133   107   108    1
   134   107   128    1
   135   108   109    2
   136   108   129    1
   137   109   110    1
   138   109   130    1
   139   110   131    1
   140   112   113    1
   141   112   117    2
   142   113   114    2
   143   113   132    1
   144   114   115    1
   145   114   133    1
   146   115   116    2
   147   115   134    1
   148   116   117    1
   149   116   135    1
   150   117   136    1
@<TRIPOS>SUBSTRUCTURE
     1 RES1      136 GROUP             0 ****  ****    0  
