@<TRIPOS>MOLECULE
am_c3_9H2O_c0_0_nunpairedes_0_charge_3 Charge: 3 Unpaired_Electrons: 2 XTB_Unpaired_Electrons: 0 XTB_Charge: 3
   148   161     1     0     0
SMALL
NoCharges
****
Generated from Architector

@<TRIPOS>ATOM
     1 Pr1      -0.0949   -0.0547   -0.0048   Pr        1 RES1   0.0000
     2 C1       -1.9567    3.4358    3.7707   C.3       1 RES1   0.0000
     3 C2       -0.9371    2.7511    4.6744   C.3       1 RES1   0.0000
     4 N1        0.1257    2.1591    3.8518   N.am      1 RES1   0.0000
     5 C3       -0.1687    1.2732    2.8903   C.2       1 RES1   0.0000
     6 O1        0.5139    1.1844    1.8409   O.2       1 RES1   0.0000
     7 C4       -1.3265    0.3058    3.0654   C.ar      1 RES1   0.0000
     8 C5       -1.8226   -0.1661    4.2841   C.ar      1 RES1   0.0000
     9 C6       -2.8775   -1.0661    4.2719   C.ar      1 RES1   0.0000
    10 C7       -3.3433   -1.5720    3.0733   C.ar      1 RES1   0.0000
    11 C8       -2.6961   -1.1752    1.9051   C.ar      1 RES1   0.0000
    12 C9       -3.0113   -1.8088    0.6043   C.ar      1 RES1   0.0000
    13 C10      -4.2006   -2.5107    0.4011   C.ar      1 RES1   0.0000
    14 C11      -4.5005   -2.9781   -0.8648   C.ar      1 RES1   0.0000
    15 C12      -3.6188   -2.7489   -1.9085   C.ar      1 RES1   0.0000
    16 C13      -2.4170   -2.1131   -1.6164   C.ar      1 RES1   0.0000
    17 C14      -1.3962   -1.7191   -2.6457   C.2       1 RES1   0.0000
    18 O2       -0.6077   -0.7979   -2.3299   O.2       1 RES1   0.0000
    19 N2       -1.3626   -2.2719   -3.8534   N.am      1 RES1   0.0000
    20 C15      -0.4326   -1.7200   -4.8400   C.3       1 RES1   0.0000
    21 C16      -0.8298   -0.3239   -5.2963   C.3       1 RES1   0.0000
    22 C17      -2.0431   -3.4587   -4.2614   C.ar      1 RES1   0.0000
    23 C18      -2.8675   -3.3868   -5.3817   C.ar      1 RES1   0.0000
    24 C19      -3.4934   -4.5220   -5.8559   C.ar      1 RES1   0.0000
    25 C20      -3.3088   -5.7436   -5.2207   C.ar      1 RES1   0.0000
    26 C21      -3.9906   -6.9782   -5.6989   C.3       1 RES1   0.0000
    27 C22      -2.4531   -5.7956   -4.1244   C.ar      1 RES1   0.0000
    28 C23      -1.7955   -4.6812   -3.6285   C.ar      1 RES1   0.0000
    29 C24      -0.8126   -4.8000   -2.4980   C.3       1 RES1   0.0000
    30 N3       -2.1236   -1.6536   -0.3864   N.ar      1 RES1   0.0000
    31 N4       -1.7580   -0.2235    1.9124   N.ar      1 RES1   0.0000
    32 C25       1.3575    2.8954    3.8171   C.ar      1 RES1   0.0000
    33 C26       1.3087    4.2831    3.9940   C.ar      1 RES1   0.0000
    34 C27       2.4512    5.0525    4.0334   C.ar      1 RES1   0.0000
    35 C28       3.6983    4.4674    3.8644   C.ar      1 RES1   0.0000
    36 C29       4.9497    5.2754    3.8476   C.3       1 RES1   0.0000
    37 C30       3.7420    3.0885    3.7188   C.ar      1 RES1   0.0000
    38 C31       2.6146    2.2758    3.7127   C.ar      1 RES1   0.0000
    39 C32       2.8365    0.7916    3.6837   C.3       1 RES1   0.0000
    40 H1       -2.7343    3.9009    4.3652   H         1 RES1   0.0000
    41 H2       -2.4068    2.6981    3.1093   H         1 RES1   0.0000
    42 H3       -1.4950    4.1989    3.1514   H         1 RES1   0.0000
    43 H4       -1.4446    2.0047    5.2755   H         1 RES1   0.0000
    44 H5       -0.4585    3.4355    5.3744   H         1 RES1   0.0000
    45 H6       -1.3812    0.0980    5.2304   H         1 RES1   0.0000
    46 H7       -3.3047   -1.4027    5.2008   H         1 RES1   0.0000
    47 H8       -4.1325   -2.3025    3.0748   H         1 RES1   0.0000
    48 H9       -4.9205   -2.6381    1.1878   H         1 RES1   0.0000
    49 H10      -5.4279   -3.4909   -1.0529   H         1 RES1   0.0000
    50 H11      -3.8699   -3.0432   -2.9147   H         1 RES1   0.0000
    51 H12      -0.4102   -2.4062   -5.6869   H         1 RES1   0.0000
    52 H13       0.5585   -1.6841   -4.3766   H         1 RES1   0.0000
    53 H14      -1.8461   -0.2993   -5.6798   H         1 RES1   0.0000
    54 H15      -0.1616   -0.0167   -6.0933   H         1 RES1   0.0000
    55 H16      -0.7447    0.3677   -4.4634   H         1 RES1   0.0000
    56 H17      -3.0144   -2.4418   -5.8847   H         1 RES1   0.0000
    57 H18      -4.1229   -4.4614   -6.7267   H         1 RES1   0.0000
    58 H19      -4.6132   -6.7682   -6.5649   H         1 RES1   0.0000
    59 H20      -4.6086   -7.3988   -4.9054   H         1 RES1   0.0000
    60 H21      -3.2486   -7.7304   -5.9632   H         1 RES1   0.0000
    61 H22      -2.2882   -6.7525   -3.6597   H         1 RES1   0.0000
    62 H23      -0.7013   -5.8451   -2.2187   H         1 RES1   0.0000
    63 H24      -1.1461   -4.2352   -1.6253   H         1 RES1   0.0000
    64 H25       0.1614   -4.4147   -2.8076   H         1 RES1   0.0000
    65 H26       0.3709    4.8034    4.1020   H         1 RES1   0.0000
    66 H27       2.3729    6.1139    4.2036   H         1 RES1   0.0000
    67 H28       4.7264    6.3310    3.9812   H         1 RES1   0.0000
    68 H29       5.4678    5.1337    2.8986   H         1 RES1   0.0000
    69 H30       5.6218    4.9450    4.6391   H         1 RES1   0.0000
    70 H31       4.7132    2.6261    3.6352   H         1 RES1   0.0000
    71 H32       3.9042    0.5853    3.6108   H         1 RES1   0.0000
    72 H33       2.3305    0.3205    2.8367   H         1 RES1   0.0000
    73 H34       2.4723    0.3543    4.6137   H         1 RES1   0.0000
    74 C33       2.7273    4.2001   -3.1393   C.3       1 RES1   0.0000
    75 C34       1.3628    4.0942   -3.8048   C.3       1 RES1   0.0000
    76 N5        0.3827    3.4370   -2.9299   N.am      1 RES1   0.0000
    77 C35       0.5734    2.2877   -2.2749   C.2       1 RES1   0.0000
    78 O3       -0.1332    1.9887   -1.2826   O.2       1 RES1   0.0000
    79 C36       1.5652    1.2393   -2.7311   C.ar      1 RES1   0.0000
    80 C37       2.0637    1.1292   -4.0282   C.ar      1 RES1   0.0000
    81 C38       2.8695    0.0535   -4.3571   C.ar      1 RES1   0.0000
    82 C39       3.1103   -0.9244   -3.4161   C.ar      1 RES1   0.0000
    83 C40       2.5337   -0.7854   -2.1532   C.ar      1 RES1   0.0000
    84 C41       2.6928   -1.8702   -1.1613   C.ar      1 RES1   0.0000
    85 C42       3.6720   -2.8536   -1.3200   C.ar      1 RES1   0.0000
    86 C43       3.8380   -3.8072   -0.3341   C.ar      1 RES1   0.0000
    87 C44       3.0250   -3.7748    0.7874   C.ar      1 RES1   0.0000
    88 C45       2.0230   -2.8124    0.8438   C.ar      1 RES1   0.0000
    89 C46       1.0822   -2.6100    1.9941   C.2       1 RES1   0.0000
    90 O4        0.4131   -1.5549    1.9752   O.2       1 RES1   0.0000
    91 N6        0.9871   -3.4560    3.0141   N.am      1 RES1   0.0000
    92 C47       0.1849   -3.0343    4.1635   C.3       1 RES1   0.0000
    93 C48       0.8589   -1.9173    4.9448   C.3       1 RES1   0.0000
    94 C49       1.3837   -4.8227    3.0398   C.ar      1 RES1   0.0000
    95 C50       2.1944   -5.2422    4.0898   C.ar      1 RES1   0.0000
    96 C51       2.4997   -6.5795    4.2335   C.ar      1 RES1   0.0000
    97 C52       2.0035   -7.5125    3.3322   C.ar      1 RES1   0.0000
    98 C53       2.3347   -8.9584    3.4597   C.3       1 RES1   0.0000
    99 C54       1.1683   -7.0712    2.3098   C.ar      1 RES1   0.0000
   100 C55       0.8237   -5.7398    2.1438   C.ar      1 RES1   0.0000
   101 C56      -0.1686   -5.3126    1.0974   C.3       1 RES1   0.0000
   102 N7        1.8641   -1.8776   -0.1123   N.ar      1 RES1   0.0000
   103 N8        1.8027    0.2851   -1.8154   N.ar      1 RES1   0.0000
   104 C57      -0.7325    4.2855   -2.5828   C.ar      1 RES1   0.0000
   105 C58      -0.4513    5.6002   -2.2001   C.ar      1 RES1   0.0000
   106 C59      -1.4507    6.5290   -2.0018   C.ar      1 RES1   0.0000
   107 C60      -2.7882    6.1726   -2.1451   C.ar      1 RES1   0.0000
   108 C61      -3.8921    7.1537   -1.9307   C.3       1 RES1   0.0000
   109 C62      -3.0585    4.8600   -2.5053   C.ar      1 RES1   0.0000
   110 C63      -2.0683    3.9093   -2.7489   C.ar      1 RES1   0.0000
   111 C64      -2.5383    2.5730   -3.2557   C.3       1 RES1   0.0000
   112 H35       3.4141    4.7113   -3.8042   H         1 RES1   0.0000
   113 H36       3.1343    3.2210   -2.9023   H         1 RES1   0.0000
   114 H37       2.6579    4.7715   -2.2175   H         1 RES1   0.0000
   115 H38       1.4194    3.5868   -4.7678   H         1 RES1   0.0000
   116 H39       0.9652    5.0875   -4.0204   H         1 RES1   0.0000
   117 H40       1.7937    1.8183   -4.8065   H         1 RES1   0.0000
   118 H41       3.2674   -0.0336   -5.3530   H         1 RES1   0.0000
   119 H42       3.6643   -1.8004   -3.7025   H         1 RES1   0.0000
   120 H43       4.3274   -2.8650   -2.1708   H         1 RES1   0.0000
   121 H44       4.5994   -4.5629   -0.4291   H         1 RES1   0.0000
   122 H45       3.1609   -4.4836    1.5877   H         1 RES1   0.0000
   123 H46       0.0285   -3.9067    4.7968   H         1 RES1   0.0000
   124 H47      -0.7794   -2.6860    3.7809   H         1 RES1   0.0000
   125 H48       1.8670   -2.1909    5.2466   H         1 RES1   0.0000
   126 H49       0.2829   -1.7208    5.8426   H         1 RES1   0.0000
   127 H50       0.8995   -1.0256    4.3280   H         1 RES1   0.0000
   128 H51       2.5694   -4.5188    4.7993   H         1 RES1   0.0000
   129 H52       3.1126   -6.9010    5.0571   H         1 RES1   0.0000
   130 H53       2.9786   -9.1326    4.3179   H         1 RES1   0.0000
   131 H54       2.8352   -9.3095    2.5574   H         1 RES1   0.0000
   132 H55       1.4207   -9.5398    3.5710   H         1 RES1   0.0000
   133 H56       0.7577   -7.8071    1.6403   H         1 RES1   0.0000
   134 H57      -0.5483   -6.1868    0.5734   H         1 RES1   0.0000
   135 H58       0.2876   -4.6360    0.3719   H         1 RES1   0.0000
   136 H59      -1.0089   -4.7962    1.5682   H         1 RES1   0.0000
   137 H60       0.5719    5.9176   -2.0721   H         1 RES1   0.0000
   138 H61      -1.1830    7.5437   -1.7555   H         1 RES1   0.0000
   139 H62      -3.4960    8.1359   -1.6841   H         1 RES1   0.0000
   140 H63      -4.5413    6.8173   -1.1216   H         1 RES1   0.0000
   141 H64      -4.5084    7.2329   -2.8262   H         1 RES1   0.0000
   142 H65      -4.0905    4.5699   -2.6414   H         1 RES1   0.0000
   143 H66      -3.0224    2.7177   -4.2235   H         1 RES1   0.0000
   144 H67      -3.3069    2.1777   -2.5866   H         1 RES1   0.0000
   145 H68      -1.7299    1.8538   -3.3690   H         1 RES1   0.0000
   146 O5       -2.4124    1.3551   -0.2026   O.3       1 RES1   0.0000
   147 H69      -2.6343    1.3815   -1.1462   H         1 RES1   0.0000
   148 H70      -2.1478    2.2652   -0.0003   H         1 RES1   0.0000
@<TRIPOS>BOND
     1     1     6    1
     2     1    18    1
     3     1    30    1
     4     1    31    1
     5     1    78    1
     6     1    90    1
     7     1   102    1
     8     1   103    1
     9     1   146    1
    10     2     3    1
    11     2    40    1
    12     2    41    1
    13     2    42    1
    14     3     4    1
    15     3    43    1
    16     3    44    1
    17     4     5    1
    18     4    32    1
    19     5     6    2
    20     5     7    1
    21     7     8    1
    22     7    31    2
    23     8     9    2
    24     8    45    1
    25     9    10    1
    26     9    46    1
    27    10    11    2
    28    10    47    1
    29    11    12    1
    30    11    31    1
    31    12    13    1
    32    12    30    2
    33    13    14    2
    34    13    48    1
    35    14    15    1
    36    14    49    1
    37    15    16    2
    38    15    50    1
    39    16    17    1
    40    16    30    1
    41    17    18    2
    42    17    19    1
    43    19    20    1
    44    19    22    1
    45    20    21    1
    46    20    51    1
    47    20    52    1
    48    21    53    1
    49    21    54    1
    50    21    55    1
    51    22    23    1
    52    22    28    2
    53    23    24    2
    54    23    56    1
    55    24    25    1
    56    24    57    1
    57    25    26    1
    58    25    27    2
    59    26    58    1
    60    26    59    1
    61    26    60    1
    62    27    28    1
    63    27    61    1
    64    28    29    1
    65    29    62    1
    66    29    63    1
    67    29    64    1
    68    32    33    1
    69    32    38    2
    70    33    34    2
    71    33    65    1
    72    34    35    1
    73    34    66    1
    74    35    36    1
    75    35    37    2
    76    36    67    1
    77    36    68    1
    78    36    69    1
    79    37    38    1
    80    37    70    1
    81    38    39    1
    82    39    71    1
    83    39    72    1
    84    39    73    1
    85    74    75    1
    86    74   112    1
    87    74   113    1
    88    74   114    1
    89    75    76    1
    90    75   115    1
    91    75   116    1
    92    76    77    1
    93    76   104    1
    94    77    78    2
    95    77    79    1
    96    79    80    1
    97    79   103    2
    98    80    81    2
    99    80   117    1
   100    81    82    1
   101    81   118    1
   102    82    83    2
   103    82   119    1
   104    83    84    1
   105    83   103    1
   106    84    85    1
   107    84   102    2
   108    85    86    2
   109    85   120    1
   110    86    87    1
   111    86   121    1
   112    87    88    2
   113    87   122    1
   114    88    89    1
   115    88   102    1
   116    89    90    2
   117    89    91    1
   118    91    92    1
   119    91    94    1
   120    92    93    1
   121    92   123    1
   122    92   124    1
   123    93   125    1
   124    93   126    1
   125    93   127    1
   126    94    95    1
   127    94   100    2
   128    95    96    2
   129    95   128    1
   130    96    97    1
   131    96   129    1
   132    97    98    1
   133    97    99    2
   134    98   130    1
   135    98   131    1
   136    98   132    1
   137    99   100    1
   138    99   133    1
   139   100   101    1
   140   101   134    1
   141   101   135    1
   142   101   136    1
   143   104   105    1
   144   104   110    2
   145   105   106    2
   146   105   137    1
   147   106   107    1
   148   106   138    1
   149   107   108    1
   150   107   109    2
   151   108   139    1
   152   108   140    1
   153   108   141    1
   154   109   110    1
   155   109   142    1
   156   110   111    1
   157   111   143    1
   158   111   144    1
   159   111   145    1
   160   146   147    1
   161   146   148    1
@<TRIPOS>SUBSTRUCTURE
     1 RES1      148 GROUP             0 ****  ****    0  
