@<TRIPOS>MOLECULE
tri_tri_mer_capped_0_nunpairedes_0_charge_3 Charge: 3 Unpaired_Electrons: 2 XTB_Unpaired_Electrons: 0 XTB_Charge: 3
   340   345     1     0     0
SMALL
NoCharges
****
Generated from Architector

@<TRIPOS>ATOM
     1 Pr1       0.4661   -0.4108   -0.0780   Pr        1 RES1   0.0000
     2 C1       -3.2797    1.0628   -2.2235   C.3       1 RES1   0.0000
     3 C2       -4.3922    1.9937   -2.6993   C.3       1 RES1   0.0000
     4 C3       -4.8347    3.0804   -1.7091   C.3       1 RES1   0.0000
     5 C4       -5.2226    2.6183   -0.2930   C.3       1 RES1   0.0000
     6 C5       -6.7021    2.7030    0.0948   C.3       1 RES1   0.0000
     7 C6       -6.9036    2.6179    1.6159   C.3       1 RES1   0.0000
     8 C7       -6.4659    1.2685    2.2073   C.3       1 RES1   0.0000
     9 C8       -5.7500    1.3695    3.5578   C.3       1 RES1   0.0000
    10 C9       -5.1802    0.0068    3.9857   C.3       1 RES1   0.0000
    11 C10      -3.8495    0.0705    4.7498   C.3       1 RES1   0.0000
    12 C11      -3.1382   -1.2910    4.7163   C.3       1 RES1   0.0000
    13 C12      -1.5944   -1.2092    4.8057   C.3       1 RES1   0.0000
    14 N1       -0.9404   -1.8811    3.6832   N.am      1 RES1   0.0000
    15 C13      -1.2485   -3.3014    3.4864   C.3       1 RES1   0.0000
    16 C14      -0.3496   -4.2019    4.3452   C.3       1 RES1   0.0000
    17 C15       1.0746   -4.3880    3.8249   C.3       1 RES1   0.0000
    18 C16       1.8043   -5.4801    4.5968   C.3       1 RES1   0.0000
    19 C17      -0.0180   -1.3637    2.8700   C.2       1 RES1   0.0000
    20 O1        0.2428   -1.8609    1.7560   O.2       1 RES1   0.0000
    21 C18       0.8452   -0.1566    3.2831   C.3       1 RES1   0.0000
    22 O2        1.5728    0.2943    2.1398   O.3       1 RES1   0.0000
    23 C19       2.9555   -0.0710    2.0892   C.3       1 RES1   0.0000
    24 C20       3.4562   -0.0839    0.6474   C.2       1 RES1   0.0000
    25 O3        2.7470   -0.7150   -0.1585   O.2       1 RES1   0.0000
    26 N2        4.6396    0.4203    0.2987   N.am      1 RES1   0.0000
    27 C21       5.2128   -0.1379   -0.9299   C.3       1 RES1   0.0000
    28 C22       5.6608   -1.5902   -0.6880   C.3       1 RES1   0.0000
    29 C23       6.3113   -1.8152    0.6791   C.3       1 RES1   0.0000
    30 C24       6.2692   -3.2752    1.1108   C.3       1 RES1   0.0000
    31 C25       5.5867    1.1846    1.1129   C.3       1 RES1   0.0000
    32 C26       5.1311    2.5610    1.6035   C.3       1 RES1   0.0000
    33 C27       6.3404    3.4924    1.8641   C.3       1 RES1   0.0000
    34 C28       6.2104    4.3976    3.1139   C.3       1 RES1   0.0000
    35 C29       7.0655    3.8678    4.2811   C.3       1 RES1   0.0000
    36 C30       6.6808    4.4168    5.6677   C.3       1 RES1   0.0000
    37 C31       7.2112    3.5600    6.8429   C.3       1 RES1   0.0000
    38 C32       6.3468    3.5776    8.1325   C.3       1 RES1   0.0000
    39 C33       5.7309    2.2487    8.6238   C.3       1 RES1   0.0000
    40 C34       6.6884    1.1822    9.1650   C.3       1 RES1   0.0000
    41 C35       5.9367   -0.0480    9.7049   C.3       1 RES1   0.0000
    42 C36       5.4771   -1.0177    8.6153   C.3       1 RES1   0.0000
    43 H1       -2.9015    0.4804   -3.0637   H         1 RES1   0.0000
    44 H2       -3.6382    0.3514   -1.4841   H         1 RES1   0.0000
    45 H3       -2.4556    1.6354   -1.7937   H         1 RES1   0.0000
    46 H4       -5.2415    1.3921   -3.0065   H         1 RES1   0.0000
    47 H5       -4.0391    2.5022   -3.5959   H         1 RES1   0.0000
    48 H6       -5.6765    3.6104   -2.1559   H         1 RES1   0.0000
    49 H7       -4.0215    3.8090   -1.6231   H         1 RES1   0.0000
    50 H8       -4.6896    3.2508    0.4188   H         1 RES1   0.0000
    51 H9       -4.8839    1.5901   -0.1582   H         1 RES1   0.0000
    52 H10      -7.2575    1.8976   -0.3896   H         1 RES1   0.0000
    53 H11      -7.1133    3.6550   -0.2506   H         1 RES1   0.0000
    54 H12      -7.9561    2.7895    1.8271   H         1 RES1   0.0000
    55 H13      -6.3566    3.4258    2.1081   H         1 RES1   0.0000
    56 H14      -5.7675    0.7922    1.5147   H         1 RES1   0.0000
    57 H15      -7.3139    0.5895    2.2977   H         1 RES1   0.0000
    58 H16      -6.4320    1.7544    4.3140   H         1 RES1   0.0000
    59 H17      -4.9330    2.0865    3.4465   H         1 RES1   0.0000
    60 H18      -5.0106   -0.5750    3.0748   H         1 RES1   0.0000
    61 H19      -5.9139   -0.5325    4.5845   H         1 RES1   0.0000
    62 H20      -4.0193    0.3868    5.7781   H         1 RES1   0.0000
    63 H21      -3.2039    0.8220    4.2858   H         1 RES1   0.0000
    64 H22      -3.4233   -1.7740    3.7792   H         1 RES1   0.0000
    65 H23      -3.5216   -1.9216    5.5172   H         1 RES1   0.0000
    66 H24      -1.2463   -1.6479    5.7428   H         1 RES1   0.0000
    67 H25      -1.2961   -0.1630    4.8060   H         1 RES1   0.0000
    68 H26      -1.1013   -3.5344    2.4300   H         1 RES1   0.0000
    69 H27      -2.2914   -3.4820    3.7477   H         1 RES1   0.0000
    70 H28      -0.8429   -5.1731    4.3944   H         1 RES1   0.0000
    71 H29      -0.3015   -3.8098    5.3613   H         1 RES1   0.0000
    72 H30       1.6361   -3.4562    3.9181   H         1 RES1   0.0000
    73 H31       1.0478   -4.6443    2.7667   H         1 RES1   0.0000
    74 H32       1.8973   -5.2127    5.6448   H         1 RES1   0.0000
    75 H33       2.8006   -5.6339    4.1935   H         1 RES1   0.0000
    76 H34       1.2674   -6.4215    4.5347   H         1 RES1   0.0000
    77 H35       1.5295   -0.4867    4.0720   H         1 RES1   0.0000
    78 H36       0.2551    0.6813    3.6801   H         1 RES1   0.0000
    79 H37       3.0842   -1.1084    2.4258   H         1 RES1   0.0000
    80 H38       3.5327    0.6012    2.7145   H         1 RES1   0.0000
    81 H39       6.0547    0.4787   -1.2524   H         1 RES1   0.0000
    82 H40       4.4505   -0.1280   -1.7109   H         1 RES1   0.0000
    83 H41       6.3535   -1.8741   -1.4803   H         1 RES1   0.0000
    84 H42       4.7869   -2.2402   -0.7604   H         1 RES1   0.0000
    85 H43       5.7533   -1.2777    1.4442   H         1 RES1   0.0000
    86 H44       7.3339   -1.4369    0.6760   H         1 RES1   0.0000
    87 H45       5.2305   -3.5830    1.2236   H         1 RES1   0.0000
    88 H46       6.7608   -3.3907    2.0750   H         1 RES1   0.0000
    89 H47       6.7457   -3.9310    0.3897   H         1 RES1   0.0000
    90 H48       6.4648    1.3183    0.4800   H         1 RES1   0.0000
    91 H49       5.8949    0.5943    1.9779   H         1 RES1   0.0000
    92 H50       4.5725    2.4377    2.5264   H         1 RES1   0.0000
    93 H51       4.4579    3.0058    0.8708   H         1 RES1   0.0000
    94 H52       6.4983    4.1044    0.9743   H         1 RES1   0.0000
    95 H53       7.2448    2.8904    1.9887   H         1 RES1   0.0000
    96 H54       5.1612    4.4670    3.4107   H         1 RES1   0.0000
    97 H55       6.5250    5.4133    2.8736   H         1 RES1   0.0000
    98 H56       8.1169    4.0708    4.0683   H         1 RES1   0.0000
    99 H57       6.9710    2.7856    4.2902   H         1 RES1   0.0000
   100 H58       5.5945    4.4670    5.7261   H         1 RES1   0.0000
   101 H59       7.0430    5.4407    5.7643   H         1 RES1   0.0000
   102 H60       8.2124    3.9162    7.0898   H         1 RES1   0.0000
   103 H61       7.3081    2.5338    6.4953   H         1 RES1   0.0000
   104 H62       5.5179    4.2747    7.9849   H         1 RES1   0.0000
   105 H63       6.9304    3.9679    8.9683   H         1 RES1   0.0000
   106 H64       5.1218    1.7901    7.8461   H         1 RES1   0.0000
   107 H65       5.0377    2.5064    9.4312   H         1 RES1   0.0000
   108 H66       7.2841    1.6073    9.9728   H         1 RES1   0.0000
   109 H67       7.3791    0.8424    8.3919   H         1 RES1   0.0000
   110 H68       5.0669    0.2767   10.2824   H         1 RES1   0.0000
   111 H69       6.5872   -0.6012   10.3858   H         1 RES1   0.0000
   112 H70       4.8127   -0.5217    7.9097   H         1 RES1   0.0000
   113 H71       4.9333   -1.8580    9.0488   H         1 RES1   0.0000
   114 H72       6.3375   -1.4133    8.0753   H         1 RES1   0.0000
   115 C37       2.2885    7.3696    6.7040   C.3       1 RES1   0.0000
   116 C38       1.2188    8.4136    6.4052   C.3       1 RES1   0.0000
   117 C39       0.0404    7.8721    5.5958   C.3       1 RES1   0.0000
   118 C40       0.3197    7.5935    4.1110   C.3       1 RES1   0.0000
   119 C41       0.1023    8.7775    3.1606   C.3       1 RES1   0.0000
   120 C42      -0.5212    8.3970    1.8043   C.3       1 RES1   0.0000
   121 C43       0.4778    7.9296    0.7377   C.3       1 RES1   0.0000
   122 C44      -0.2166    7.6150   -0.5901   C.3       1 RES1   0.0000
   123 C45       0.7282    7.0326   -1.6481   C.3       1 RES1   0.0000
   124 C46       0.0634    5.9405   -2.4901   C.3       1 RES1   0.0000
   125 C47       0.9713    5.4566   -3.6349   C.3       1 RES1   0.0000
   126 C48       1.0805    3.9307   -3.7779   C.3       1 RES1   0.0000
   127 N3        1.5651    3.2292   -2.5931   N.am      1 RES1   0.0000
   128 C49       2.6039    3.8558   -1.7825   C.3       1 RES1   0.0000
   129 C50       3.9239    4.0196   -2.5394   C.3       1 RES1   0.0000
   130 C51       4.3975    2.7446   -3.2344   C.3       1 RES1   0.0000
   131 C52       5.6902    2.9935   -3.9998   C.3       1 RES1   0.0000
   132 C53       1.2346    1.9817   -2.2839   C.2       1 RES1   0.0000
   133 O4        1.6268    1.4212   -1.2415   O.2       1 RES1   0.0000
   134 C54       0.3394    1.1436   -3.2093   C.3       1 RES1   0.0000
   135 O5        0.1791   -0.1302   -2.5832   O.3       1 RES1   0.0000
   136 C55       0.6007   -1.2408   -3.3668   C.3       1 RES1   0.0000
   137 C56       0.9129   -2.4356   -2.4523   C.2       1 RES1   0.0000
   138 O6        0.8922   -2.2939   -1.2179   O.2       1 RES1   0.0000
   139 N4        1.2141   -3.5977   -3.0138   N.am      1 RES1   0.0000
   140 C57       1.5332   -4.7284   -2.1440   C.3       1 RES1   0.0000
   141 C58       2.9891   -4.6888   -1.6765   C.3       1 RES1   0.0000
   142 C59       3.9786   -4.9721   -2.8051   C.3       1 RES1   0.0000
   143 C60       5.4120   -5.0594   -2.3005   C.3       1 RES1   0.0000
   144 C61       1.0615   -3.8711   -4.4257   C.3       1 RES1   0.0000
   145 C62      -0.3475   -4.3971   -4.7353   C.3       1 RES1   0.0000
   146 C63      -0.7259   -4.1505   -6.1988   C.3       1 RES1   0.0000
   147 C64      -1.4376   -2.8083   -6.4489   C.3       1 RES1   0.0000
   148 C65      -0.8177   -1.9591   -7.5628   C.3       1 RES1   0.0000
   149 C66       0.4573   -1.2513   -7.1113   C.3       1 RES1   0.0000
   150 C67       1.0964   -0.4214   -8.2212   C.3       1 RES1   0.0000
   151 C68       2.3106    0.3823   -7.7428   C.3       1 RES1   0.0000
   152 C69       3.4329   -0.4508   -7.1111   C.3       1 RES1   0.0000
   153 C70       4.0470   -1.4518   -8.0924   C.3       1 RES1   0.0000
   154 C71       5.1284   -2.3400   -7.4703   C.3       1 RES1   0.0000
   155 C72       4.5604   -3.3974   -6.5249   C.3       1 RES1   0.0000
   156 H73       3.0325    7.7956    7.3726   H         1 RES1   0.0000
   157 H74       2.7996    7.0462    5.7985   H         1 RES1   0.0000
   158 H75       1.8478    6.5004    7.1921   H         1 RES1   0.0000
   159 H76       1.6759    9.2629    5.9005   H         1 RES1   0.0000
   160 H77       0.8251    8.7694    7.3573   H         1 RES1   0.0000
   161 H78      -0.7943    8.5703    5.6919   H         1 RES1   0.0000
   162 H79      -0.2573    6.9307    6.0681   H         1 RES1   0.0000
   163 H80      -0.3597    6.7958    3.8046   H         1 RES1   0.0000
   164 H81       1.3371    7.2140    4.0159   H         1 RES1   0.0000
   165 H82       1.0388    9.3067    2.9891   H         1 RES1   0.0000
   166 H83      -0.5866    9.4749    3.6346   H         1 RES1   0.0000
   167 H84      -1.0518    9.2681    1.4083   H         1 RES1   0.0000
   168 H85      -1.2810    7.6225    1.9733   H         1 RES1   0.0000
   169 H86       1.0171    7.0445    1.0958   H         1 RES1   0.0000
   170 H87       1.2064    8.7257    0.5722   H         1 RES1   0.0000
   171 H88      -0.6655    8.5319   -0.9698   H         1 RES1   0.0000
   172 H89      -1.0301    6.9108   -0.4018   H         1 RES1   0.0000
   173 H90       1.6127    6.6302   -1.1498   H         1 RES1   0.0000
   174 H91       1.0737    7.8247   -2.3087   H         1 RES1   0.0000
   175 H92      -0.8668    6.3368   -2.8972   H         1 RES1   0.0000
   176 H93      -0.1991    5.0978   -1.8458   H         1 RES1   0.0000
   177 H94       1.9596    5.8969   -3.5145   H         1 RES1   0.0000
   178 H95       0.5854    5.8216   -4.5893   H         1 RES1   0.0000
   179 H96       1.7511    3.7179   -4.6188   H         1 RES1   0.0000
   180 H97       0.0912    3.5407   -4.0217   H         1 RES1   0.0000
   181 H98       2.7467    3.2023   -0.9202   H         1 RES1   0.0000
   182 H99       2.2607    4.8281   -1.4344   H         1 RES1   0.0000
   183 H100      4.6745    4.3452   -1.8158   H         1 RES1   0.0000
   184 H101      3.8351    4.8047   -3.2905   H         1 RES1   0.0000
   185 H102      3.6318    2.4022   -3.9371   H         1 RES1   0.0000
   186 H103      4.5418    1.9553   -2.4960   H         1 RES1   0.0000
   187 H104      5.5360    3.7721   -4.7401   H         1 RES1   0.0000
   188 H105      6.0124    2.0956   -4.5183   H         1 RES1   0.0000
   189 H106      6.4808    3.3126   -3.3265   H         1 RES1   0.0000
   190 H107      0.7971    1.0466   -4.1996   H         1 RES1   0.0000
   191 H108     -0.6478    1.6101   -3.3220   H         1 RES1   0.0000
   192 H109      1.5085   -0.9911   -3.9302   H         1 RES1   0.0000
   193 H110     -0.2022   -1.5034   -4.0665   H         1 RES1   0.0000
   194 H111      1.3421   -5.6477   -2.6997   H         1 RES1   0.0000
   195 H112      0.8695   -4.6827   -1.2773   H         1 RES1   0.0000
   196 H113      3.1111   -5.4386   -0.8936   H         1 RES1   0.0000
   197 H114      3.1857   -3.7061   -1.2405   H         1 RES1   0.0000
   198 H115      3.9179   -4.1771   -3.5496   H         1 RES1   0.0000
   199 H116      3.7102   -5.9121   -3.2897   H         1 RES1   0.0000
   200 H117      5.7157   -4.1125   -1.8666   H         1 RES1   0.0000
   201 H118      6.0841   -5.2939   -3.1202   H         1 RES1   0.0000
   202 H119      5.5122   -5.8332   -1.5448   H         1 RES1   0.0000
   203 H120      1.8177   -4.5965   -4.7251   H         1 RES1   0.0000
   204 H121      1.2419   -2.9649   -4.9974   H         1 RES1   0.0000
   205 H122     -1.0699   -3.8999   -4.0857   H         1 RES1   0.0000
   206 H123     -0.4067   -5.4622   -4.5180   H         1 RES1   0.0000
   207 H124     -1.3778   -4.9550   -6.5332   H         1 RES1   0.0000
   208 H125      0.1785   -4.2090   -6.8022   H         1 RES1   0.0000
   209 H126     -1.4582   -2.2096   -5.5327   H         1 RES1   0.0000
   210 H127     -2.4777   -3.0004   -6.7079   H         1 RES1   0.0000
   211 H128     -1.5420   -1.2061   -7.8829   H         1 RES1   0.0000
   212 H129     -0.5988   -2.5883   -8.4260   H         1 RES1   0.0000
   213 H130      1.1814   -1.9953   -6.7760   H         1 RES1   0.0000
   214 H131      0.2205   -0.5930   -6.2661   H         1 RES1   0.0000
   215 H132      0.3576    0.2786   -8.6151   H         1 RES1   0.0000
   216 H133      1.3849   -1.0786   -9.0412   H         1 RES1   0.0000
   217 H134      1.9774    1.1288   -7.0112   H         1 RES1   0.0000
   218 H135      2.7215    0.9237   -8.5973   H         1 RES1   0.0000
   219 H136      3.0565   -0.9739   -6.2249   H         1 RES1   0.0000
   220 H137      4.2190    0.2316   -6.7712   H         1 RES1   0.0000
   221 H138      4.4865   -0.8909   -8.9196   H         1 RES1   0.0000
   222 H139      3.2673   -2.0953   -8.5052   H         1 RES1   0.0000
   223 H140      5.8580   -1.7213   -6.9402   H         1 RES1   0.0000
   224 H141      5.6563   -2.8506   -8.2780   H         1 RES1   0.0000
   225 H142      4.0674   -2.9369   -5.6670   H         1 RES1   0.0000
   226 H143      5.3589   -4.0391   -6.1579   H         1 RES1   0.0000
   227 H144      3.8383   -4.0221   -7.0504   H         1 RES1   0.0000
   228 C73      -3.5544    5.0366   -6.8632   C.3       1 RES1   0.0000
   229 C74      -4.0175    3.9864   -5.8603   C.3       1 RES1   0.0000
   230 C75      -5.5443    3.9099   -5.7361   C.3       1 RES1   0.0000
   231 C76      -6.2137    3.0712   -6.8295   C.3       1 RES1   0.0000
   232 C77      -6.0029    1.5503   -6.6902   C.3       1 RES1   0.0000
   233 C78      -7.2716    0.7426   -6.3767   C.3       1 RES1   0.0000
   234 C79      -7.5182    0.4281   -4.8973   C.3       1 RES1   0.0000
   235 C80      -6.6063   -0.6793   -4.3634   C.3       1 RES1   0.0000
   236 C81      -6.8008   -0.9109   -2.8633   C.3       1 RES1   0.0000
   237 C82      -5.8240   -1.9454   -2.3001   C.3       1 RES1   0.0000
   238 C83      -5.8847   -1.9857   -0.7728   C.3       1 RES1   0.0000
   239 C84      -4.8482   -2.8929   -0.0919   C.3       1 RES1   0.0000
   240 N5       -3.4919   -2.6895   -0.5829   N.am      1 RES1   0.0000
   241 C85      -2.9916   -3.6317   -1.5778   C.3       1 RES1   0.0000
   242 C86      -2.6039   -4.9825   -0.9688   C.3       1 RES1   0.0000
   243 C87      -1.8209   -4.8721    0.3386   C.3       1 RES1   0.0000
   244 C88      -1.1557   -6.2018    0.6849   C.3       1 RES1   0.0000
   245 C89      -2.6922   -1.6951   -0.2239   C.2       1 RES1   0.0000
   246 O7       -1.6092   -1.4391   -0.7844   O.2       1 RES1   0.0000
   247 C90      -3.0573   -0.8437    0.9913   C.3       1 RES1   0.0000
   248 O8       -2.0068    0.0919    1.1875   O.3       1 RES1   0.0000
   249 C91      -2.4276    1.4357    1.4094   C.3       1 RES1   0.0000
   250 C92      -1.1567    2.2651    1.2706   C.2       1 RES1   0.0000
   251 O9       -0.1658    1.6874    0.7813   O.2       1 RES1   0.0000
   252 N6       -1.1241    3.5158    1.7083   N.am      1 RES1   0.0000
   253 C93      -2.3044    4.3294    1.9666   C.3       1 RES1   0.0000
   254 C94      -2.7172    4.4667    3.4333   C.3       1 RES1   0.0000
   255 C95      -3.9999    5.2973    3.5451   C.3       1 RES1   0.0000
   256 C96      -4.6428    5.1356    4.9124   C.3       1 RES1   0.0000
   257 C97       0.1929    4.1163    1.8998   C.3       1 RES1   0.0000
   258 C98       0.7399    3.6618    3.2510   C.3       1 RES1   0.0000
   259 C99       2.1164    4.2346    3.5653   C.3       1 RES1   0.0000
   260 C100      2.6325    3.7231    4.9175   C.3       1 RES1   0.0000
   261 C101      3.0018    2.2215    4.8888   C.3       1 RES1   0.0000
   262 C102      4.4912    1.9382    5.1366   C.3       1 RES1   0.0000
   263 C103      4.8876    0.4638    4.9633   C.3       1 RES1   0.0000
   264 C104      6.3124    0.0913    5.4075   C.3       1 RES1   0.0000
   265 C105      7.4835    0.3940    4.4434   C.3       1 RES1   0.0000
   266 C106      8.2475   -0.8683    4.0231   C.3       1 RES1   0.0000
   267 C107      9.6006   -0.5851    3.3560   C.3       1 RES1   0.0000
   268 C108      9.5668    0.3181    2.1224   C.3       1 RES1   0.0000
   269 H145     -2.4676    5.0508   -6.9216   H         1 RES1   0.0000
   270 H146     -3.8894    6.0272   -6.5641   H         1 RES1   0.0000
   271 H147     -3.9513    4.8317   -7.8532   H         1 RES1   0.0000
   272 H148     -3.5946    4.2396   -4.8821   H         1 RES1   0.0000
   273 H149     -3.6218    3.0096   -6.1530   H         1 RES1   0.0000
   274 H150     -5.9422    4.9270   -5.7721   H         1 RES1   0.0000
   275 H151     -5.8131    3.4870   -4.7654   H         1 RES1   0.0000
   276 H152     -5.8352    3.3968   -7.7987   H         1 RES1   0.0000
   277 H153     -7.2822    3.2901   -6.8245   H         1 RES1   0.0000
   278 H154     -5.2554    1.3573   -5.9211   H         1 RES1   0.0000
   279 H155     -5.6009    1.1722   -7.6307   H         1 RES1   0.0000
   280 H156     -7.2258   -0.2006   -6.9230   H         1 RES1   0.0000
   281 H157     -8.1345    1.2823   -6.7649   H         1 RES1   0.0000
   282 H158     -8.5525    0.0948   -4.7946   H         1 RES1   0.0000
   283 H159     -7.4028    1.3358   -4.2994   H         1 RES1   0.0000
   284 H160     -5.5614   -0.4203   -4.5569   H         1 RES1   0.0000
   285 H161     -6.8278   -1.6001   -4.9075   H         1 RES1   0.0000
   286 H162     -7.8236   -1.2391   -2.6782   H         1 RES1   0.0000
   287 H163     -6.6596    0.0337   -2.3314   H         1 RES1   0.0000
   288 H164     -4.8133   -1.6838   -2.6261   H         1 RES1   0.0000
   289 H165     -6.0752   -2.9218   -2.7137   H         1 RES1   0.0000
   290 H166     -6.8707   -2.3279   -0.4613   H         1 RES1   0.0000
   291 H167     -5.7756   -0.9667   -0.4016   H         1 RES1   0.0000
   292 H168     -5.0968   -3.9372   -0.2742   H         1 RES1   0.0000
   293 H169     -4.9047   -2.7242    0.9872   H         1 RES1   0.0000
   294 H170     -2.1160   -3.1559   -2.0247   H         1 RES1   0.0000
   295 H171     -3.7472   -3.7952   -2.3464   H         1 RES1   0.0000
   296 H172     -1.9980   -5.4959   -1.7144   H         1 RES1   0.0000
   297 H173     -3.4936   -5.5887   -0.8063   H         1 RES1   0.0000
   298 H174     -2.5045   -4.5857    1.1422   H         1 RES1   0.0000
   299 H175     -1.0596   -4.0887    0.2397   H         1 RES1   0.0000
   300 H176     -1.9014   -6.9881    0.7865   H         1 RES1   0.0000
   301 H177     -0.5980   -6.1399    1.6177   H         1 RES1   0.0000
   302 H178     -0.4658   -6.4866   -0.1077   H         1 RES1   0.0000
   303 H179     -3.1070   -1.4946    1.8746   H         1 RES1   0.0000
   304 H180     -4.0147   -0.3382    0.8545   H         1 RES1   0.0000
   305 H181     -2.8463    1.5466    2.4174   H         1 RES1   0.0000
   306 H182     -3.1652    1.7374    0.6625   H         1 RES1   0.0000
   307 H183     -3.1436    3.9226    1.3965   H         1 RES1   0.0000
   308 H184     -2.1057    5.3332    1.5772   H         1 RES1   0.0000
   309 H185     -2.8885    3.4816    3.8755   H         1 RES1   0.0000
   310 H186     -1.9228    4.9523    3.9997   H         1 RES1   0.0000
   311 H187     -4.7057    4.9933    2.7692   H         1 RES1   0.0000
   312 H188     -3.7713    6.3479    3.3823   H         1 RES1   0.0000
   313 H189     -4.9632    4.1111    5.0796   H         1 RES1   0.0000
   314 H190     -5.5119    5.7762    5.0030   H         1 RES1   0.0000
   315 H191     -3.9397    5.4073    5.6935   H         1 RES1   0.0000
   316 H192      0.1019    5.1983    1.8387   H         1 RES1   0.0000
   317 H193      0.8551    3.7586    1.1055   H         1 RES1   0.0000
   318 H194      0.8116    2.5762    3.2111   H         1 RES1   0.0000
   319 H195      0.0417    3.9240    4.0455   H         1 RES1   0.0000
   320 H196      2.0706    5.3254    3.5813   H         1 RES1   0.0000
   321 H197      2.8109    3.9485    2.7719   H         1 RES1   0.0000
   322 H198      1.8732    3.9236    5.6757   H         1 RES1   0.0000
   323 H199      3.5057    4.3072    5.2067   H         1 RES1   0.0000
   324 H200      2.7214    1.8485    3.9035   H         1 RES1   0.0000
   325 H201      2.4198    1.6682    5.6317   H         1 RES1   0.0000
   326 H202      5.0825    2.5461    4.4656   H         1 RES1   0.0000
   327 H203      4.7252    2.2624    6.1483   H         1 RES1   0.0000
   328 H204      4.7937    0.1714    3.9166   H         1 RES1   0.0000
   329 H205      4.2004   -0.1517    5.5543   H         1 RES1   0.0000
   330 H206      6.3153   -0.9854    5.5962   H         1 RES1   0.0000
   331 H207      6.4994    0.5787    6.3616   H         1 RES1   0.0000
   332 H208      8.1879    1.0747    4.9313   H         1 RES1   0.0000
   333 H209      7.1310    0.8900    3.5375   H         1 RES1   0.0000
   334 H210      7.6206   -1.4694    3.3557   H         1 RES1   0.0000
   335 H211      8.4479   -1.4686    4.9136   H         1 RES1   0.0000
   336 H212     10.0433   -1.5454    3.0767   H         1 RES1   0.0000
   337 H213     10.2636   -0.1321    4.0952   H         1 RES1   0.0000
   338 H214      8.8068   -0.0078    1.4126   H         1 RES1   0.0000
   339 H215     10.5336    0.2679    1.6248   H         1 RES1   0.0000
   340 H216      9.3832    1.3578    2.3923   H         1 RES1   0.0000
@<TRIPOS>BOND
     1     1    20    1
     2     1    22    1
     3     1    25    1
     4     1   133    1
     5     1   135    1
     6     1   138    1
     7     1   246    1
     8     1   248    1
     9     1   251    1
    10     2     3    1
    11     2    43    1
    12     2    44    1
    13     2    45    1
    14     3     4    1
    15     3    46    1
    16     3    47    1
    17     4     5    1
    18     4    48    1
    19     4    49    1
    20     5     6    1
    21     5    50    1
    22     5    51    1
    23     6     7    1
    24     6    52    1
    25     6    53    1
    26     7     8    1
    27     7    54    1
    28     7    55    1
    29     8     9    1
    30     8    56    1
    31     8    57    1
    32     9    10    1
    33     9    58    1
    34     9    59    1
    35    10    11    1
    36    10    60    1
    37    10    61    1
    38    11    12    1
    39    11    62    1
    40    11    63    1
    41    12    13    1
    42    12    64    1
    43    12    65    1
    44    13    14    1
    45    13    66    1
    46    13    67    1
    47    14    15    1
    48    14    19    1
    49    15    16    1
    50    15    68    1
    51    15    69    1
    52    16    17    1
    53    16    70    1
    54    16    71    1
    55    17    18    1
    56    17    72    1
    57    17    73    1
    58    18    74    1
    59    18    75    1
    60    18    76    1
    61    19    20    2
    62    19    21    1
    63    21    22    1
    64    21    77    1
    65    21    78    1
    66    22    23    1
    67    23    24    1
    68    23    79    1
    69    23    80    1
    70    24    25    2
    71    24    26    1
    72    26    27    1
    73    26    31    1
    74    27    28    1
    75    27    81    1
    76    27    82    1
    77    28    29    1
    78    28    83    1
    79    28    84    1
    80    29    30    1
    81    29    85    1
    82    29    86    1
    83    30    87    1
    84    30    88    1
    85    30    89    1
    86    31    32    1
    87    31    90    1
    88    31    91    1
    89    32    33    1
    90    32    92    1
    91    32    93    1
    92    33    34    1
    93    33    94    1
    94    33    95    1
    95    34    35    1
    96    34    96    1
    97    34    97    1
    98    35    36    1
    99    35    98    1
   100    35    99    1
   101    36    37    1
   102    36   100    1
   103    36   101    1
   104    37    38    1
   105    37   102    1
   106    37   103    1
   107    38    39    1
   108    38   104    1
   109    38   105    1
   110    39    40    1
   111    39   106    1
   112    39   107    1
   113    40    41    1
   114    40   108    1
   115    40   109    1
   116    41    42    1
   117    41   110    1
   118    41   111    1
   119    42   112    1
   120    42   113    1
   121    42   114    1
   122   115   116    1
   123   115   156    1
   124   115   157    1
   125   115   158    1
   126   116   117    1
   127   116   159    1
   128   116   160    1
   129   117   118    1
   130   117   161    1
   131   117   162    1
   132   118   119    1
   133   118   163    1
   134   118   164    1
   135   119   120    1
   136   119   165    1
   137   119   166    1
   138   120   121    1
   139   120   167    1
   140   120   168    1
   141   121   122    1
   142   121   169    1
   143   121   170    1
   144   122   123    1
   145   122   171    1
   146   122   172    1
   147   123   124    1
   148   123   173    1
   149   123   174    1
   150   124   125    1
   151   124   175    1
   152   124   176    1
   153   125   126    1
   154   125   177    1
   155   125   178    1
   156   126   127    1
   157   126   179    1
   158   126   180    1
   159   127   128    1
   160   127   132    1
   161   128   129    1
   162   128   181    1
   163   128   182    1
   164   129   130    1
   165   129   183    1
   166   129   184    1
   167   130   131    1
   168   130   185    1
   169   130   186    1
   170   131   187    1
   171   131   188    1
   172   131   189    1
   173   132   133    2
   174   132   134    1
   175   134   135    1
   176   134   190    1
   177   134   191    1
   178   135   136    1
   179   136   137    1
   180   136   192    1
   181   136   193    1
   182   137   138    2
   183   137   139    1
   184   139   140    1
   185   139   144    1
   186   140   141    1
   187   140   194    1
   188   140   195    1
   189   141   142    1
   190   141   196    1
   191   141   197    1
   192   142   143    1
   193   142   198    1
   194   142   199    1
   195   143   200    1
   196   143   201    1
   197   143   202    1
   198   144   145    1
   199   144   203    1
   200   144   204    1
   201   145   146    1
   202   145   205    1
   203   145   206    1
   204   146   147    1
   205   146   207    1
   206   146   208    1
   207   147   148    1
   208   147   209    1
   209   147   210    1
   210   148   149    1
   211   148   211    1
   212   148   212    1
   213   149   150    1
   214   149   213    1
   215   149   214    1
   216   150   151    1
   217   150   215    1
   218   150   216    1
   219   151   152    1
   220   151   217    1
   221   151   218    1
   222   152   153    1
   223   152   219    1
   224   152   220    1
   225   153   154    1
   226   153   221    1
   227   153   222    1
   228   154   155    1
   229   154   223    1
   230   154   224    1
   231   155   225    1
   232   155   226    1
   233   155   227    1
   234   228   229    1
   235   228   269    1
   236   228   270    1
   237   228   271    1
   238   229   230    1
   239   229   272    1
   240   229   273    1
   241   230   231    1
   242   230   274    1
   243   230   275    1
   244   231   232    1
   245   231   276    1
   246   231   277    1
   247   232   233    1
   248   232   278    1
   249   232   279    1
   250   233   234    1
   251   233   280    1
   252   233   281    1
   253   234   235    1
   254   234   282    1
   255   234   283    1
   256   235   236    1
   257   235   284    1
   258   235   285    1
   259   236   237    1
   260   236   286    1
   261   236   287    1
   262   237   238    1
   263   237   288    1
   264   237   289    1
   265   238   239    1
   266   238   290    1
   267   238   291    1
   268   239   240    1
   269   239   292    1
   270   239   293    1
   271   240   241    1
   272   240   245    1
   273   241   242    1
   274   241   294    1
   275   241   295    1
   276   242   243    1
   277   242   296    1
   278   242   297    1
   279   243   244    1
   280   243   298    1
   281   243   299    1
   282   244   300    1
   283   244   301    1
   284   244   302    1
   285   245   246    2
   286   245   247    1
   287   247   248    1
   288   247   303    1
   289   247   304    1
   290   248   249    1
   291   249   250    1
   292   249   305    1
   293   249   306    1
   294   250   251    2
   295   250   252    1
   296   252   253    1
   297   252   257    1
   298   253   254    1
   299   253   307    1
   300   253   308    1
   301   254   255    1
   302   254   309    1
   303   254   310    1
   304   255   256    1
   305   255   311    1
   306   255   312    1
   307   256   313    1
   308   256   314    1
   309   256   315    1
   310   257   258    1
   311   257   316    1
   312   257   317    1
   313   258   259    1
   314   258   318    1
   315   258   319    1
   316   259   260    1
   317   259   320    1
   318   259   321    1
   319   260   261    1
   320   260   322    1
   321   260   323    1
   322   261   262    1
   323   261   324    1
   324   261   325    1
   325   262   263    1
   326   262   326    1
   327   262   327    1
   328   263   264    1
   329   263   328    1
   330   263   329    1
   331   264   265    1
   332   264   330    1
   333   264   331    1
   334   265   266    1
   335   265   332    1
   336   265   333    1
   337   266   267    1
   338   266   334    1
   339   266   335    1
   340   267   268    1
   341   267   336    1
   342   267   337    1
   343   268   338    1
   344   268   339    1
   345   268   340    1
@<TRIPOS>SUBSTRUCTURE
     1 RES1      340 GROUP             0 ****  ****    0  
