@<TRIPOS>MOLECULE
am_c3_9H2O_c0_0_nunpairedes_0_charge_3 Charge: 3 Unpaired_Electrons: 2 XTB_Unpaired_Electrons: 0 XTB_Charge: 3
   244   249     1     0     0
SMALL
NoCharges
****
Generated from Architector

@<TRIPOS>ATOM
     1 Pr1       0.0377   -0.0177   -0.0419   Pr        1 RES1   0.0000
     2 C1       -4.7255    6.0203    1.3950   C.3       1 RES1   0.0000
     3 C2       -3.4508    5.4571    0.7785   C.3       1 RES1   0.0000
     4 C3       -3.4482    5.6305   -0.7404   C.3       1 RES1   0.0000
     5 C4       -2.2518    4.9784   -1.4372   C.3       1 RES1   0.0000
     6 C5       -0.9183    5.5177   -0.9219   C.3       1 RES1   0.0000
     7 C6        0.2701    5.0180   -1.7419   C.3       1 RES1   0.0000
     8 C7        1.6222    5.4435   -1.1626   C.3       1 RES1   0.0000
     9 C8        2.2007    4.4619   -0.1391   C.3       1 RES1   0.0000
    10 N1        1.3059    4.1541    0.9753   N.am      1 RES1   0.0000
    11 C9        1.1257    5.2389    1.9341   C.3       1 RES1   0.0000
    12 C10       2.3292    5.4506    2.8585   C.3       1 RES1   0.0000
    13 C11       2.5518    4.3181    3.8579   C.3       1 RES1   0.0000
    14 C12       1.5047    4.3132    4.9712   C.3       1 RES1   0.0000
    15 C13       1.6266    3.0937    5.8848   C.3       1 RES1   0.0000
    16 C14       0.5719    3.0761    6.9940   C.3       1 RES1   0.0000
    17 C15      -0.8525    2.8582    6.4834   C.3       1 RES1   0.0000
    18 C16      -1.8473    2.7802    7.6341   C.3       1 RES1   0.0000
    19 C17       0.7223    2.9731    1.0274   C.2       1 RES1   0.0000
    20 O1        0.8951    2.0927    0.1466   O.2       1 RES1   0.0000
    21 C18      -0.1974    2.6215    2.2032   C.3       1 RES1   0.0000
    22 O2       -0.7064    1.3057    1.9987   O.3       1 RES1   0.0000
    23 C19      -0.9302    0.5799    3.2081   C.3       1 RES1   0.0000
    24 C20      -1.4392   -0.8242    2.8451   C.3       1 RES1   0.0000
    25 O3       -0.6617   -1.4742    1.8347   O.3       1 RES1   0.0000
    26 C21       0.4661   -2.1936    2.3370   C.3       1 RES1   0.0000
    27 C22       1.6833   -1.2616    2.4524   C.2       1 RES1   0.0000
    28 O4        1.6042   -0.1681    1.8483   O.2       1 RES1   0.0000
    29 N2        2.6953   -1.5661    3.2555   N.am      1 RES1   0.0000
    30 C23       3.5707   -0.4813    3.7203   C.3       1 RES1   0.0000
    31 C24       4.8597   -0.2180    2.9372   C.3       1 RES1   0.0000
    32 C25       4.5981    0.4811    1.6067   C.3       1 RES1   0.0000
    33 C26       5.8467    0.7607    0.7631   C.3       1 RES1   0.0000
    34 C27       6.7085    1.9541    1.2017   C.3       1 RES1   0.0000
    35 C28       7.7659    1.6697    2.2701   C.3       1 RES1   0.0000
    36 C29       8.7321    0.5471    1.8974   C.3       1 RES1   0.0000
    37 C30       9.8675    0.4468    2.9078   C.3       1 RES1   0.0000
    38 C31       3.1101   -2.9262    3.6259   C.3       1 RES1   0.0000
    39 C32       2.1371   -3.8141    4.4052   C.3       1 RES1   0.0000
    40 C33       2.8098   -5.1168    4.8524   C.3       1 RES1   0.0000
    41 C34       3.1976   -6.0703    3.7160   C.3       1 RES1   0.0000
    42 C35       2.0506   -6.8977    3.1157   C.3       1 RES1   0.0000
    43 C36       1.2425   -6.2326    1.9981   C.3       1 RES1   0.0000
    44 C37       0.3679   -7.2562    1.2709   C.3       1 RES1   0.0000
    45 C38      -0.4585   -6.6462    0.1424   C.3       1 RES1   0.0000
    46 H1       -4.7093    5.9263    2.4779   H         1 RES1   0.0000
    47 H2       -5.6014    5.5014    1.0144   H         1 RES1   0.0000
    48 H3       -4.8213    7.0741    1.1504   H         1 RES1   0.0000
    49 H4       -3.3580    4.3917    1.0254   H         1 RES1   0.0000
    50 H5       -2.5958    5.9804    1.2118   H         1 RES1   0.0000
    51 H6       -3.4552    6.6964   -0.9710   H         1 RES1   0.0000
    52 H7       -4.3691    5.2049   -1.1441   H         1 RES1   0.0000
    53 H8       -2.3251    5.1752   -2.5083   H         1 RES1   0.0000
    54 H9       -2.2792    3.8907   -1.2936   H         1 RES1   0.0000
    55 H10      -0.8031    5.2135    0.1171   H         1 RES1   0.0000
    56 H11      -0.9437    6.6074   -0.9544   H         1 RES1   0.0000
    57 H12       0.1787    5.4183   -2.7520   H         1 RES1   0.0000
    58 H13       0.2280    3.9279   -1.8070   H         1 RES1   0.0000
    59 H14       1.5344    6.4402   -0.7288   H         1 RES1   0.0000
    60 H15       2.3565    5.5153   -1.9650   H         1 RES1   0.0000
    61 H16       3.1203    4.8849    0.2657   H         1 RES1   0.0000
    62 H17       2.4493    3.5157   -0.6227   H         1 RES1   0.0000
    63 H18       0.2254    5.0711    2.5219   H         1 RES1   0.0000
    64 H19       0.9781    6.1547    1.3604   H         1 RES1   0.0000
    65 H20       2.1581    6.3815    3.3986   H         1 RES1   0.0000
    66 H21       3.2310    5.5916    2.2639   H         1 RES1   0.0000
    67 H22       3.5360    4.4436    4.3090   H         1 RES1   0.0000
    68 H23       2.5594    3.3589    3.3283   H         1 RES1   0.0000
    69 H24       0.4991    4.3463    4.5477   H         1 RES1   0.0000
    70 H25       1.6221    5.2133    5.5745   H         1 RES1   0.0000
    71 H26       2.6168    3.0985    6.3433   H         1 RES1   0.0000
    72 H27       1.5477    2.1725    5.2915   H         1 RES1   0.0000
    73 H28       0.6177    4.0180    7.5414   H         1 RES1   0.0000
    74 H29       0.8136    2.2764    7.6970   H         1 RES1   0.0000
    75 H30      -0.8890    1.9252    5.9084   H         1 RES1   0.0000
    76 H31      -1.1430    3.6774    5.8212   H         1 RES1   0.0000
    77 H32      -1.6027    1.9524    8.2936   H         1 RES1   0.0000
    78 H33      -2.8591    2.6404    7.2632   H         1 RES1   0.0000
    79 H34      -1.8228    3.6974    8.2143   H         1 RES1   0.0000
    80 H35      -1.0349    3.3278    2.2545   H         1 RES1   0.0000
    81 H36       0.3808    2.6703    3.1300   H         1 RES1   0.0000
    82 H37      -1.6800    1.0890    3.8297   H         1 RES1   0.0000
    83 H38       0.0058    0.5089    3.7775   H         1 RES1   0.0000
    84 H39      -2.4509   -0.7650    2.4324   H         1 RES1   0.0000
    85 H40      -1.4774   -1.4332    3.7568   H         1 RES1   0.0000
    86 H41       0.6437   -3.0132    1.6333   H         1 RES1   0.0000
    87 H42       0.2170   -2.5876    3.3224   H         1 RES1   0.0000
    88 H43       3.8309   -0.7280    4.7498   H         1 RES1   0.0000
    89 H44       2.9733    0.4343    3.7203   H         1 RES1   0.0000
    90 H45       5.4134   -1.1421    2.7715   H         1 RES1   0.0000
    91 H46       5.4754    0.4237    3.5651   H         1 RES1   0.0000
    92 H47       4.0900    1.4278    1.8015   H         1 RES1   0.0000
    93 H48       3.9142   -0.1482    1.0292   H         1 RES1   0.0000
    94 H49       5.5138    0.9813   -0.2577   H         1 RES1   0.0000
    95 H50       6.4713   -0.1318    0.7273   H         1 RES1   0.0000
    96 H51       6.0605    2.7637    1.5479   H         1 RES1   0.0000
    97 H52       7.2337    2.3214    0.3163   H         1 RES1   0.0000
    98 H53       7.2993    1.4415    3.2291   H         1 RES1   0.0000
    99 H54       8.3428    2.5861    2.4067   H         1 RES1   0.0000
   100 H55       9.1420    0.7349    0.9031   H         1 RES1   0.0000
   101 H56       8.2075   -0.4109    1.8693   H         1 RES1   0.0000
   102 H57      10.4538    1.3614    2.9131   H         1 RES1   0.0000
   103 H58      10.5283   -0.3809    2.6646   H         1 RES1   0.0000
   104 H59       9.4712    0.2860    3.9083   H         1 RES1   0.0000
   105 H60       4.0094   -2.8091    4.2311   H         1 RES1   0.0000
   106 H61       3.3918   -3.4445    2.7078   H         1 RES1   0.0000
   107 H62       1.2965   -4.1162    3.7913   H         1 RES1   0.0000
   108 H63       1.7716   -3.2897    5.2882   H         1 RES1   0.0000
   109 H64       2.1114   -5.6370    5.5079   H         1 RES1   0.0000
   110 H65       3.6987   -4.8895    5.4406   H         1 RES1   0.0000
   111 H66       3.9110   -6.7813    4.1349   H         1 RES1   0.0000
   112 H67       3.7154   -5.5273    2.9212   H         1 RES1   0.0000
   113 H68       1.3756   -7.2093    3.9137   H         1 RES1   0.0000
   114 H69       2.4851   -7.8077    2.6975   H         1 RES1   0.0000
   115 H70       1.9259   -5.7715    1.2796   H         1 RES1   0.0000
   116 H71       0.5922   -5.4501    2.3983   H         1 RES1   0.0000
   117 H72      -0.3055   -7.7226    1.9908   H         1 RES1   0.0000
   118 H73       1.0033   -8.0405    0.8581   H         1 RES1   0.0000
   119 H74      -1.0898   -5.8370    0.5108   H         1 RES1   0.0000
   120 H75      -1.1005   -7.4063   -0.2963   H         1 RES1   0.0000
   121 H76       0.1845   -6.2558   -0.6457   H         1 RES1   0.0000
   122 C39      -0.4919   -2.6769  -10.2136   C.3       1 RES1   0.0000
   123 C40      -1.7578   -2.7179   -9.3657   C.3       1 RES1   0.0000
   124 C41      -2.6610   -1.5213   -9.6616   C.3       1 RES1   0.0000
   125 C42      -4.0089   -1.5465   -8.9338   C.3       1 RES1   0.0000
   126 C43      -3.9017   -1.6681   -7.4111   C.3       1 RES1   0.0000
   127 C44      -3.2017   -0.4616   -6.7839   C.3       1 RES1   0.0000
   128 C45      -2.4774   -0.8132   -5.4891   C.3       1 RES1   0.0000
   129 C46      -3.4370   -1.1871   -4.3541   C.3       1 RES1   0.0000
   130 N3       -2.7307   -1.6302   -3.1578   N.am      1 RES1   0.0000
   131 C47      -2.7417   -3.0687   -2.8849   C.3       1 RES1   0.0000
   132 C48      -1.9898   -3.8868   -3.9345   C.3       1 RES1   0.0000
   133 C49      -0.5040   -3.5455   -3.9706   C.3       1 RES1   0.0000
   134 C50       0.1804   -4.1480   -5.1966   C.3       1 RES1   0.0000
   135 C51       1.6724   -3.8210   -5.2861   C.3       1 RES1   0.0000
   136 C52       2.0044   -2.3279   -5.3449   C.3       1 RES1   0.0000
   137 C53       1.4285   -1.6315   -6.5762   C.3       1 RES1   0.0000
   138 C54       1.8202   -0.1602   -6.6366   C.3       1 RES1   0.0000
   139 C55      -2.0619   -0.8092   -2.3701   C.2       1 RES1   0.0000
   140 O5       -1.3776   -1.1970   -1.3911   O.2       1 RES1   0.0000
   141 C56      -2.1493    0.7170   -2.5657   C.3       1 RES1   0.0000
   142 O6       -0.9049    1.2967   -2.1773   O.3       1 RES1   0.0000
   143 C57      -0.0099    1.4030   -3.2960   C.3       1 RES1   0.0000
   144 C58       1.4191    1.3496   -2.7838   C.3       1 RES1   0.0000
   145 O7        1.5055    0.1289   -2.0579   O.3       1 RES1   0.0000
   146 C59       2.8322   -0.1720   -1.6554   C.3       1 RES1   0.0000
   147 C60       2.7358   -1.5281   -0.9449   C.2       1 RES1   0.0000
   148 O8        1.6339   -1.7811   -0.4032   O.2       1 RES1   0.0000
   149 N4        3.7841   -2.3281   -0.8860   N.am      1 RES1   0.0000
   150 C61       3.7599   -3.4986   -0.0087   C.3       1 RES1   0.0000
   151 C62       4.1166   -4.8268   -0.6694   C.3       1 RES1   0.0000
   152 C63       3.0449   -5.3384   -1.6241   C.3       1 RES1   0.0000
   153 C64       3.3489   -6.7522   -2.1274   C.3       1 RES1   0.0000
   154 C65       4.5725   -6.8251   -3.0431   C.3       1 RES1   0.0000
   155 C66       4.9249   -8.2491   -3.4785   C.3       1 RES1   0.0000
   156 C67       5.3630   -9.1763   -2.3440   C.3       1 RES1   0.0000
   157 C68       6.5993   -8.6857   -1.5984   C.3       1 RES1   0.0000
   158 C69       5.0943   -1.9570   -1.4143   C.3       1 RES1   0.0000
   159 C70       5.2380   -1.9644   -2.9385   C.3       1 RES1   0.0000
   160 C71       5.5360   -3.3239   -3.5616   C.3       1 RES1   0.0000
   161 C72       6.0865   -3.1735   -4.9847   C.3       1 RES1   0.0000
   162 C73       7.6162   -3.1830   -5.0668   C.3       1 RES1   0.0000
   163 C74       8.3390   -2.0252   -4.3636   C.3       1 RES1   0.0000
   164 C75       8.7352   -2.3205   -2.9158   C.3       1 RES1   0.0000
   165 C76       9.4551   -1.1432   -2.2660   C.3       1 RES1   0.0000
   166 H77       0.1425   -3.5345  -10.0014   H         1 RES1   0.0000
   167 H78      -0.7442   -2.6910  -11.2700   H         1 RES1   0.0000
   168 H79       0.0758   -1.7706  -10.0092   H         1 RES1   0.0000
   169 H80      -2.3012   -3.6428   -9.5664   H         1 RES1   0.0000
   170 H81      -1.4655   -2.7215   -8.3119   H         1 RES1   0.0000
   171 H82      -2.1202   -0.6020   -9.4237   H         1 RES1   0.0000
   172 H83      -2.8613   -1.4939  -10.7330   H         1 RES1   0.0000
   173 H84      -4.5494   -0.6305   -9.1809   H         1 RES1   0.0000
   174 H85      -4.6001   -2.3866   -9.3029   H         1 RES1   0.0000
   175 H86      -4.9071   -1.7812   -6.9999   H         1 RES1   0.0000
   176 H87      -3.3466   -2.5791   -7.1758   H         1 RES1   0.0000
   177 H88      -2.4513   -0.0913   -7.4806   H         1 RES1   0.0000
   178 H89      -3.9138    0.3470   -6.6194   H         1 RES1   0.0000
   179 H90      -1.8203   -1.6587   -5.6888   H         1 RES1   0.0000
   180 H91      -1.8475    0.0309   -5.2039   H         1 RES1   0.0000
   181 H92      -4.0977   -0.3532   -4.1097   H         1 RES1   0.0000
   182 H93      -4.0681   -2.0118   -4.6820   H         1 RES1   0.0000
   183 H94      -2.2986   -3.2218   -1.8986   H         1 RES1   0.0000
   184 H95      -3.7862   -3.3856   -2.8672   H         1 RES1   0.0000
   185 H96      -2.1252   -4.9438   -3.7028   H         1 RES1   0.0000
   186 H97      -2.4292   -3.7213   -4.9182   H         1 RES1   0.0000
   187 H98      -0.3871   -2.4597   -3.9839   H         1 RES1   0.0000
   188 H99      -0.0256   -3.9111   -3.0607   H         1 RES1   0.0000
   189 H100      0.0692   -5.2329   -5.1656   H         1 RES1   0.0000
   190 H101     -0.3198   -3.8049   -6.1039   H         1 RES1   0.0000
   191 H102      2.1763   -4.2590   -4.4209   H         1 RES1   0.0000
   192 H103      2.0729   -4.3039   -6.1798   H         1 RES1   0.0000
   193 H104      1.6505   -1.8302   -4.4341   H         1 RES1   0.0000
   194 H105      3.0920   -2.2302   -5.3713   H         1 RES1   0.0000
   195 H106      1.7937   -2.1363   -7.4702   H         1 RES1   0.0000
   196 H107      0.3406   -1.7040   -6.5792   H         1 RES1   0.0000
   197 H108      2.9021   -0.0528   -6.6533   H         1 RES1   0.0000
   198 H109      1.4225    0.3035   -7.5347   H         1 RES1   0.0000
   199 H110      1.4298    0.3831   -5.7743   H         1 RES1   0.0000
   200 H111     -2.4085    1.0368   -3.5728   H         1 RES1   0.0000
   201 H112     -2.9046    1.1062   -1.8750   H         1 RES1   0.0000
   202 H113     -0.1467    0.5463   -3.9674   H         1 RES1   0.0000
   203 H114     -0.2031    2.3347   -3.8418   H         1 RES1   0.0000
   204 H115      2.1225    1.3492   -3.6259   H         1 RES1   0.0000
   205 H116      1.6373    2.1936   -2.1193   H         1 RES1   0.0000
   206 H117      3.4945   -0.1794   -2.5228   H         1 RES1   0.0000
   207 H118      3.1836    0.5827   -0.9337   H         1 RES1   0.0000
   208 H119      4.4908   -3.2988    0.7813   H         1 RES1   0.0000
   209 H120      2.7596   -3.5596    0.4253   H         1 RES1   0.0000
   210 H121      5.0657   -4.7473   -1.1913   H         1 RES1   0.0000
   211 H122      4.2543   -5.5599    0.1278   H         1 RES1   0.0000
   212 H123      2.0889   -5.3505   -1.0970   H         1 RES1   0.0000
   213 H124      2.9392   -4.6566   -2.4700   H         1 RES1   0.0000
   214 H125      3.5016   -7.3985   -1.2629   H         1 RES1   0.0000
   215 H126      2.4789   -7.1307   -2.6699   H         1 RES1   0.0000
   216 H127      4.3778   -6.2339   -3.9420   H         1 RES1   0.0000
   217 H128      5.4429   -6.3942   -2.5471   H         1 RES1   0.0000
   218 H129      4.0650   -8.6941   -3.9808   H         1 RES1   0.0000
   219 H130      5.7350   -8.1827   -4.2073   H         1 RES1   0.0000
   220 H131      4.5430   -9.3189   -1.6375   H         1 RES1   0.0000
   221 H132      5.5837  -10.1512   -2.7796   H         1 RES1   0.0000
   222 H133      6.3942   -7.7732   -1.0416   H         1 RES1   0.0000
   223 H134      6.9318   -9.4400   -0.8902   H         1 RES1   0.0000
   224 H135      7.4117   -8.4917   -2.2947   H         1 RES1   0.0000
   225 H136      5.3437   -0.9657   -1.0350   H         1 RES1   0.0000
   226 H137      5.8141   -2.6571   -0.9911   H         1 RES1   0.0000
   227 H138      4.3455   -1.5748   -3.4251   H         1 RES1   0.0000
   228 H139      6.0597   -1.2873   -3.1623   H         1 RES1   0.0000
   229 H140      6.2692   -3.8662   -2.9695   H         1 RES1   0.0000
   230 H141      4.6261   -3.9185   -3.5877   H         1 RES1   0.0000
   231 H142      5.7214   -4.0041   -5.5927   H         1 RES1   0.0000
   232 H143      5.7070   -2.2502   -5.4312   H         1 RES1   0.0000
   233 H144      7.9840   -4.1302   -4.6668   H         1 RES1   0.0000
   234 H145      7.8765   -3.1550   -6.1257   H         1 RES1   0.0000
   235 H146      9.2552   -1.8100   -4.9135   H         1 RES1   0.0000
   236 H147      7.7296   -1.1190   -4.4136   H         1 RES1   0.0000
   237 H148      7.8611   -2.5674   -2.3122   H         1 RES1   0.0000
   238 H149      9.3960   -3.1888   -2.9059   H         1 RES1   0.0000
   239 H150      8.8259   -0.2531   -2.2626   H         1 RES1   0.0000
   240 H151      9.7230   -1.3810   -1.2380   H         1 RES1   0.0000
   241 H152     10.3667   -0.9125   -2.8097   H         1 RES1   0.0000
   242 O9       -2.7059    0.4713    0.3782   O.3       1 RES1   0.0000
   243 H153     -3.3786   -0.2211    0.3015   H         1 RES1   0.0000
   244 H154     -3.1605    1.2489    0.7285   H         1 RES1   0.0000
@<TRIPOS>BOND
     1     1    20    1
     2     1    22    1
     3     1    25    1
     4     1    28    1
     5     1   140    1
     6     1   142    1
     7     1   145    1
     8     1   148    1
     9     1   242    1
    10     2     3    1
    11     2    46    1
    12     2    47    1
    13     2    48    1
    14     3     4    1
    15     3    49    1
    16     3    50    1
    17     4     5    1
    18     4    51    1
    19     4    52    1
    20     5     6    1
    21     5    53    1
    22     5    54    1
    23     6     7    1
    24     6    55    1
    25     6    56    1
    26     7     8    1
    27     7    57    1
    28     7    58    1
    29     8     9    1
    30     8    59    1
    31     8    60    1
    32     9    10    1
    33     9    61    1
    34     9    62    1
    35    10    11    1
    36    10    19    1
    37    11    12    1
    38    11    63    1
    39    11    64    1
    40    12    13    1
    41    12    65    1
    42    12    66    1
    43    13    14    1
    44    13    67    1
    45    13    68    1
    46    14    15    1
    47    14    69    1
    48    14    70    1
    49    15    16    1
    50    15    71    1
    51    15    72    1
    52    16    17    1
    53    16    73    1
    54    16    74    1
    55    17    18    1
    56    17    75    1
    57    17    76    1
    58    18    77    1
    59    18    78    1
    60    18    79    1
    61    19    20    2
    62    19    21    1
    63    21    22    1
    64    21    80    1
    65    21    81    1
    66    22    23    1
    67    23    24    1
    68    23    82    1
    69    23    83    1
    70    24    25    1
    71    24    84    1
    72    24    85    1
    73    25    26    1
    74    26    27    1
    75    26    86    1
    76    26    87    1
    77    27    28    2
    78    27    29    1
    79    29    30    1
    80    29    38    1
    81    30    31    1
    82    30    88    1
    83    30    89    1
    84    31    32    1
    85    31    90    1
    86    31    91    1
    87    32    33    1
    88    32    92    1
    89    32    93    1
    90    33    34    1
    91    33    94    1
    92    33    95    1
    93    34    35    1
    94    34    96    1
    95    34    97    1
    96    35    36    1
    97    35    98    1
    98    35    99    1
    99    36    37    1
   100    36   100    1
   101    36   101    1
   102    37   102    1
   103    37   103    1
   104    37   104    1
   105    38    39    1
   106    38   105    1
   107    38   106    1
   108    39    40    1
   109    39   107    1
   110    39   108    1
   111    40    41    1
   112    40   109    1
   113    40   110    1
   114    41    42    1
   115    41   111    1
   116    41   112    1
   117    42    43    1
   118    42   113    1
   119    42   114    1
   120    43    44    1
   121    43   115    1
   122    43   116    1
   123    44    45    1
   124    44   117    1
   125    44   118    1
   126    45   119    1
   127    45   120    1
   128    45   121    1
   129   122   123    1
   130   122   166    1
   131   122   167    1
   132   122   168    1
   133   123   124    1
   134   123   169    1
   135   123   170    1
   136   124   125    1
   137   124   171    1
   138   124   172    1
   139   125   126    1
   140   125   173    1
   141   125   174    1
   142   126   127    1
   143   126   175    1
   144   126   176    1
   145   127   128    1
   146   127   177    1
   147   127   178    1
   148   128   129    1
   149   128   179    1
   150   128   180    1
   151   129   130    1
   152   129   181    1
   153   129   182    1
   154   130   131    1
   155   130   139    1
   156   131   132    1
   157   131   183    1
   158   131   184    1
   159   132   133    1
   160   132   185    1
   161   132   186    1
   162   133   134    1
   163   133   187    1
   164   133   188    1
   165   134   135    1
   166   134   189    1
   167   134   190    1
   168   135   136    1
   169   135   191    1
   170   135   192    1
   171   136   137    1
   172   136   193    1
   173   136   194    1
   174   137   138    1
   175   137   195    1
   176   137   196    1
   177   138   197    1
   178   138   198    1
   179   138   199    1
   180   139   140    2
   181   139   141    1
   182   141   142    1
   183   141   200    1
   184   141   201    1
   185   142   143    1
   186   143   144    1
   187   143   202    1
   188   143   203    1
   189   144   145    1
   190   144   204    1
   191   144   205    1
   192   145   146    1
   193   146   147    1
   194   146   206    1
   195   146   207    1
   196   147   148    2
   197   147   149    1
   198   149   150    1
   199   149   158    1
   200   150   151    1
   201   150   208    1
   202   150   209    1
   203   151   152    1
   204   151   210    1
   205   151   211    1
   206   152   153    1
   207   152   212    1
   208   152   213    1
   209   153   154    1
   210   153   214    1
   211   153   215    1
   212   154   155    1
   213   154   216    1
   214   154   217    1
   215   155   156    1
   216   155   218    1
   217   155   219    1
   218   156   157    1
   219   156   220    1
   220   156   221    1
   221   157   222    1
   222   157   223    1
   223   157   224    1
   224   158   159    1
   225   158   225    1
   226   158   226    1
   227   159   160    1
   228   159   227    1
   229   159   228    1
   230   160   161    1
   231   160   229    1
   232   160   230    1
   233   161   162    1
   234   161   231    1
   235   161   232    1
   236   162   163    1
   237   162   233    1
   238   162   234    1
   239   163   164    1
   240   163   235    1
   241   163   236    1
   242   164   165    1
   243   164   237    1
   244   164   238    1
   245   165   239    1
   246   165   240    1
   247   165   241    1
   248   242   243    1
   249   242   244    1
@<TRIPOS>SUBSTRUCTURE
     1 RES1      244 GROUP             0 ****  ****    0  
