@<TRIPOS>MOLECULE
am_c3_9H2O_c0_0_nunpairedes_0_charge_3 Charge: 3 Unpaired_Electrons: 2 XTB_Unpaired_Electrons: 0 XTB_Charge: 3
   256   267     1     0     0
SMALL
NoCharges
****
Generated from Architector

@<TRIPOS>ATOM
     1 Pr1       0.1098    0.1845   -0.2360   Pr        1 RES1   0.0000
     2 C1       -0.8358   -4.7575   -3.5479   C.3       1 RES1   0.0000
     3 C2       -1.1042   -4.4937   -2.0727   C.3       1 RES1   0.0000
     4 C3       -2.5487   -4.8460   -1.7137   C.3       1 RES1   0.0000
     5 C4       -3.0033   -4.4134   -0.3161   C.3       1 RES1   0.0000
     6 C5       -2.7219   -5.4186    0.8056   C.3       1 RES1   0.0000
     7 C6       -1.2527   -5.5940    1.1805   C.3       1 RES1   0.0000
     8 C7       -0.6804   -4.3097    1.7755   C.3       1 RES1   0.0000
     9 C8        0.8420   -4.3666    1.8647   C.3       1 RES1   0.0000
    10 N1        1.4350   -3.1475    2.4140   N.am      1 RES1   0.0000
    11 C9        1.9077   -3.2427    3.7940   C.3       1 RES1   0.0000
    12 C10       0.8238   -3.7673    4.7576   C.3       1 RES1   0.0000
    13 C11       1.1302   -3.4821    6.2341   C.3       1 RES1   0.0000
    14 C12      -0.1559   -3.4773    7.0953   C.3       1 RES1   0.0000
    15 C13      -0.1754   -2.2956    8.0831   C.3       1 RES1   0.0000
    16 C14      -1.5728   -1.8035    8.5181   C.3       1 RES1   0.0000
    17 C15      -1.7134   -0.2666    8.5190   C.3       1 RES1   0.0000
    18 C16      -2.7188    0.3099    7.5270   C.3       1 RES1   0.0000
    19 C17       1.4519   -2.0643    1.6350   C.2       1 RES1   0.0000
    20 O1        0.7495   -1.9773    0.6008   O.2       1 RES1   0.0000
    21 C18       2.4044   -0.9116    1.8519   C.ar      1 RES1   0.0000
    22 C19       3.7086   -1.0339    2.3554   C.ar      1 RES1   0.0000
    23 C20       4.5315    0.0742    2.3672   C.ar      1 RES1   0.0000
    24 C21       4.0735    1.3063    1.8566   C.ar      1 RES1   0.0000
    25 C22       4.8143    2.5318    1.8925   C.ar      1 RES1   0.0000
    26 C23       4.2971    3.6889    1.3939   C.ar      1 RES1   0.0000
    27 C24       3.0202    3.7078    0.7432   C.ar      1 RES1   0.0000
    28 C25       2.4088    4.8421    0.1743   C.ar      1 RES1   0.0000
    29 C26       1.2263    4.7303   -0.5321   C.ar      1 RES1   0.0000
    30 C27       0.6222    3.4715   -0.6788   C.ar      1 RES1   0.0000
    31 C28      -0.5902    3.0455   -1.4807   C.2       1 RES1   0.0000
    32 O2       -0.6891    1.8071   -1.6504   O.2       1 RES1   0.0000
    33 N2       -1.5174    3.8317   -2.0212   N.am      1 RES1   0.0000
    34 C29      -2.5747    3.1256   -2.7625   C.3       1 RES1   0.0000
    35 C30      -2.1424    2.1912   -3.9195   C.3       1 RES1   0.0000
    36 C31      -2.6482    2.6685   -5.2922   C.3       1 RES1   0.0000
    37 C32      -1.7426    2.3022   -6.4771   C.3       1 RES1   0.0000
    38 C33      -2.0378    0.9521   -7.1439   C.3       1 RES1   0.0000
    39 C34      -2.8715    1.0727   -8.4300   C.3       1 RES1   0.0000
    40 C35      -4.3594    0.7847   -8.2467   C.3       1 RES1   0.0000
    41 C36      -5.1149    0.9517   -9.5583   C.3       1 RES1   0.0000
    42 C37      -1.6632    5.2594   -1.7033   C.3       1 RES1   0.0000
    43 C38      -3.0037    5.9241   -2.0389   C.3       1 RES1   0.0000
    44 C39      -4.2442    5.3774   -1.3196   C.3       1 RES1   0.0000
    45 C40      -4.4200    5.8996    0.1105   C.3       1 RES1   0.0000
    46 C41      -5.3955    5.0348    0.9205   C.3       1 RES1   0.0000
    47 C42      -4.7113    3.7903    1.4866   C.3       1 RES1   0.0000
    48 C43      -5.6628    2.8645    2.2455   C.3       1 RES1   0.0000
    49 C44      -6.6794    2.1702    1.3429   C.3       1 RES1   0.0000
    50 N3        1.1515    2.4065   -0.0748   N.ar      1 RES1   0.0000
    51 C45       2.2839    2.5036    0.6311   C.ar      1 RES1   0.0000
    52 C46       2.7817    1.3041    1.2776   C.ar      1 RES1   0.0000
    53 N4        1.9884    0.2230    1.2942   N.ar      1 RES1   0.0000
    54 H1        0.2202   -4.6497   -3.7729   H         1 RES1   0.0000
    55 H2       -1.3914   -4.0690   -4.1772   H         1 RES1   0.0000
    56 H3       -1.1316   -5.7668   -3.8153   H         1 RES1   0.0000
    57 H4       -0.9134   -3.4357   -1.8427   H         1 RES1   0.0000
    58 H5       -0.4070   -5.1004   -1.4956   H         1 RES1   0.0000
    59 H6       -2.6975   -5.9211   -1.8078   H         1 RES1   0.0000
    60 H7       -3.2024   -4.3690   -2.4504   H         1 RES1   0.0000
    61 H8       -4.0862   -4.2747   -0.3422   H         1 RES1   0.0000
    62 H9       -2.5652   -3.4363   -0.0898   H         1 RES1   0.0000
    63 H10      -3.1384   -6.3842    0.5149   H         1 RES1   0.0000
    64 H11      -3.2550   -5.0937    1.7036   H         1 RES1   0.0000
    65 H12      -0.6731   -5.9065    0.3148   H         1 RES1   0.0000
    66 H13      -1.1778   -6.3921    1.9191   H         1 RES1   0.0000
    67 H14      -1.1188   -4.1621    2.7654   H         1 RES1   0.0000
    68 H15      -0.9431   -3.4609    1.1424   H         1 RES1   0.0000
    69 H16       1.2485   -4.5069    0.8568   H         1 RES1   0.0000
    70 H17       1.1477   -5.1999    2.4973   H         1 RES1   0.0000
    71 H18       2.2048   -2.2401    4.1031   H         1 RES1   0.0000
    72 H19       2.7718   -3.9148    3.8182   H         1 RES1   0.0000
    73 H20       0.6715   -4.8375    4.6245   H         1 RES1   0.0000
    74 H21      -0.1121   -3.2645    4.5202   H         1 RES1   0.0000
    75 H22       1.6031   -2.5017    6.3142   H         1 RES1   0.0000
    76 H23       1.8508   -4.2091    6.6070   H         1 RES1   0.0000
    77 H24      -0.2387   -4.4167    7.6435   H         1 RES1   0.0000
    78 H25      -1.0316   -3.4213    6.4417   H         1 RES1   0.0000
    79 H26       0.3468   -1.4545    7.6241   H         1 RES1   0.0000
    80 H27       0.4080   -2.5833    8.9611   H         1 RES1   0.0000
    81 H28      -1.7550   -2.1486    9.5330   H         1 RES1   0.0000
    82 H29      -2.3535   -2.2466    7.8940   H         1 RES1   0.0000
    83 H30      -0.7443    0.1898    8.3251   H         1 RES1   0.0000
    84 H31      -2.0074    0.0573    9.5139   H         1 RES1   0.0000
    85 H32      -2.4341    0.1142    6.4968   H         1 RES1   0.0000
    86 H33      -2.7770    1.3884    7.6494   H         1 RES1   0.0000
    87 H34      -3.7166   -0.0896    7.6824   H         1 RES1   0.0000
    88 H35       4.0691   -1.9851    2.7098   H         1 RES1   0.0000
    89 H36       5.5249    0.0013    2.7837   H         1 RES1   0.0000
    90 H37       5.7926    2.5304    2.3553   H         1 RES1   0.0000
    91 H38       4.8628    4.6120    1.4472   H         1 RES1   0.0000
    92 H39       2.8784    5.8062    0.2983   H         1 RES1   0.0000
    93 H40       0.7821    5.6200   -0.9426   H         1 RES1   0.0000
    94 H41      -3.2307    3.8851   -3.1737   H         1 RES1   0.0000
    95 H42      -3.1376    2.5287   -2.0332   H         1 RES1   0.0000
    96 H43      -2.5379    1.1969   -3.7106   H         1 RES1   0.0000
    97 H44      -1.0582    2.0898   -3.9411   H         1 RES1   0.0000
    98 H45      -2.7189    3.7547   -5.2725   H         1 RES1   0.0000
    99 H46      -3.6513    2.2748   -5.4723   H         1 RES1   0.0000
   100 H47      -0.7031    2.3231   -6.1423   H         1 RES1   0.0000
   101 H48      -1.8527    3.0803   -7.2361   H         1 RES1   0.0000
   102 H49      -2.5525    0.3022   -6.4320   H         1 RES1   0.0000
   103 H50      -1.0851    0.4796   -7.3926   H         1 RES1   0.0000
   104 H51      -2.4834    0.3800   -9.1767   H         1 RES1   0.0000
   105 H52      -2.7606    2.0753   -8.8449   H         1 RES1   0.0000
   106 H53      -4.7810    1.4596   -7.4982   H         1 RES1   0.0000
   107 H54      -4.4886   -0.2395   -7.8892   H         1 RES1   0.0000
   108 H55      -5.0777    1.9857   -9.8869   H         1 RES1   0.0000
   109 H56      -6.1566    0.6682   -9.4452   H         1 RES1   0.0000
   110 H57      -4.6790    0.3272  -10.3329   H         1 RES1   0.0000
   111 H58      -0.9044    5.8055   -2.2714   H         1 RES1   0.0000
   112 H59      -1.4693    5.3778   -0.6334   H         1 RES1   0.0000
   113 H60      -3.1735    5.9013   -3.1157   H         1 RES1   0.0000
   114 H61      -2.8915    6.9789   -1.7771   H         1 RES1   0.0000
   115 H62      -4.2212    4.2883   -1.2894   H         1 RES1   0.0000
   116 H63      -5.1198    5.6741   -1.9030   H         1 RES1   0.0000
   117 H64      -4.7989    6.9204    0.0685   H         1 RES1   0.0000
   118 H65      -3.4555    5.9347    0.6271   H         1 RES1   0.0000
   119 H66      -6.2349    4.7421    0.2882   H         1 RES1   0.0000
   120 H67      -5.7932    5.6187    1.7523   H         1 RES1   0.0000
   121 H68      -3.9354    4.1295    2.1812   H         1 RES1   0.0000
   122 H69      -4.2389    3.2266    0.6704   H         1 RES1   0.0000
   123 H70      -6.1986    3.4495    2.9934   H         1 RES1   0.0000
   124 H71      -5.0721    2.1117    2.7802   H         1 RES1   0.0000
   125 H72      -7.4451    2.8677    1.0163   H         1 RES1   0.0000
   126 H73      -7.1800    1.3726    1.8878   H         1 RES1   0.0000
   127 H74      -6.2015    1.7495    0.4569   H         1 RES1   0.0000
   128 C47      -1.9526   -6.8198    5.1114   C.3       1 RES1   0.0000
   129 C48      -3.1197   -6.1957    5.8591   C.3       1 RES1   0.0000
   130 C49      -4.3172   -5.9346    4.9494   C.3       1 RES1   0.0000
   131 C50      -5.4567   -5.1933    5.6516   C.3       1 RES1   0.0000
   132 C51      -5.1135   -3.7886    6.1465   C.3       1 RES1   0.0000
   133 C52      -4.8180   -2.8056    5.0084   C.3       1 RES1   0.0000
   134 C53      -3.3354   -2.4756    4.7839   C.3       1 RES1   0.0000
   135 C54      -3.2724   -1.6030    3.5269   C.3       1 RES1   0.0000
   136 N5       -2.0603   -0.8212    3.2289   N.am      1 RES1   0.0000
   137 C55      -0.9217   -0.7575    4.1546   C.3       1 RES1   0.0000
   138 C56      -0.2341    0.5932    4.4128   C.3       1 RES1   0.0000
   139 C57       0.8909    0.4252    5.4620   C.3       1 RES1   0.0000
   140 C58       2.2652    0.8618    4.9392   C.3       1 RES1   0.0000
   141 C59       3.4808    0.5881    5.8496   C.3       1 RES1   0.0000
   142 C60       3.9174   -0.8842    5.9335   C.3       1 RES1   0.0000
   143 C61       5.4203   -1.1472    5.8192   C.3       1 RES1   0.0000
   144 C62       5.7052   -2.6485    5.8291   C.3       1 RES1   0.0000
   145 C63      -1.9289   -0.2840    2.0273   C.2       1 RES1   0.0000
   146 O3       -0.9195    0.3903    1.7281   O.2       1 RES1   0.0000
   147 C64      -2.8892   -0.5470    0.8810   C.ar      1 RES1   0.0000
   148 C65      -4.2890   -0.5392    0.8095   C.ar      1 RES1   0.0000
   149 C66      -4.9089   -0.8849   -0.3745   C.ar      1 RES1   0.0000
   150 C67      -4.1421   -1.2045   -1.5077   C.ar      1 RES1   0.0000
   151 C68      -4.6608   -1.6418   -2.7632   C.ar      1 RES1   0.0000
   152 C69      -3.8504   -1.8310   -3.8404   C.ar      1 RES1   0.0000
   153 C70      -2.4512   -1.5345   -3.7723   C.ar      1 RES1   0.0000
   154 C71      -1.5393   -1.5720   -4.8457   C.ar      1 RES1   0.0000
   155 C72      -0.2519   -1.0855   -4.6994   C.ar      1 RES1   0.0000
   156 C73       0.1603   -0.5992   -3.4482   C.ar      1 RES1   0.0000
   157 C74       1.4546    0.0617   -3.0033   C.2       1 RES1   0.0000
   158 O4        1.7162   -0.0613   -1.7831   O.2       1 RES1   0.0000
   159 N6        2.2941    0.7525   -3.7705   N.am      1 RES1   0.0000
   160 C75       3.5701    1.1488   -3.1588   C.3       1 RES1   0.0000
   161 C76       4.3868   -0.0259   -2.6147   C.3       1 RES1   0.0000
   162 C77       4.5953   -1.1261   -3.6469   C.3       1 RES1   0.0000
   163 C78       5.3334   -2.3097   -3.0285   C.3       1 RES1   0.0000
   164 C79       5.5554   -3.4430   -4.0279   C.3       1 RES1   0.0000
   165 C80       6.6032   -3.1040   -5.0890   C.3       1 RES1   0.0000
   166 C81       6.9831   -4.3105   -5.9494   C.3       1 RES1   0.0000
   167 C82       5.8413   -4.7995   -6.8341   C.3       1 RES1   0.0000
   168 C83       2.0299    1.2453   -5.1139   C.3       1 RES1   0.0000
   169 C84       2.2237    2.7671   -5.2777   C.3       1 RES1   0.0000
   170 C85       1.3803    3.5628   -4.2826   C.3       1 RES1   0.0000
   171 C86       1.2405    5.0369   -4.6464   C.3       1 RES1   0.0000
   172 C87       0.7055    5.2550   -6.0595   C.3       1 RES1   0.0000
   173 C88       0.0795    6.6400   -6.2199   C.3       1 RES1   0.0000
   174 C89      -1.3650    6.7077   -5.7131   C.3       1 RES1   0.0000
   175 C90      -2.3497    6.2879   -6.8022   C.3       1 RES1   0.0000
   176 N7       -0.6352   -0.7400   -2.3930   N.ar      1 RES1   0.0000
   177 C91      -1.9017   -1.1375   -2.5372   C.ar      1 RES1   0.0000
   178 C92      -2.7480   -1.0431   -1.3753   C.ar      1 RES1   0.0000
   179 N8       -2.1605   -0.7449   -0.2138   N.ar      1 RES1   0.0000
   180 H75      -1.1712   -7.1082    5.8049   H         1 RES1   0.0000
   181 H76      -1.5353   -6.1192    4.3920   H         1 RES1   0.0000
   182 H77      -2.2720   -7.7059    4.5752   H         1 RES1   0.0000
   183 H78      -2.7920   -5.2622    6.3160   H         1 RES1   0.0000
   184 H79      -3.4368   -6.8562    6.6645   H         1 RES1   0.0000
   185 H80      -4.7017   -6.8937    4.5949   H         1 RES1   0.0000
   186 H81      -4.0027   -5.3736    4.0635   H         1 RES1   0.0000
   187 H82      -5.8059   -5.7907    6.4940   H         1 RES1   0.0000
   188 H83      -6.2987   -5.1077    4.9624   H         1 RES1   0.0000
   189 H84      -4.2874   -3.8290    6.8509   H         1 RES1   0.0000
   190 H85      -5.9722   -3.4284    6.7081   H         1 RES1   0.0000
   191 H86      -5.3360   -1.8658    5.2047   H         1 RES1   0.0000
   192 H87      -5.2221   -3.2257    4.0885   H         1 RES1   0.0000
   193 H88      -2.7628   -3.3955    4.6555   H         1 RES1   0.0000
   194 H89      -2.9733   -1.9470    5.6650   H         1 RES1   0.0000
   195 H90      -4.1004   -0.8875    3.5981   H         1 RES1   0.0000
   196 H91      -3.4516   -2.2501    2.6562   H         1 RES1   0.0000
   197 H92      -0.1511   -1.4325    3.7691   H         1 RES1   0.0000
   198 H93      -1.2816   -1.1391    5.1009   H         1 RES1   0.0000
   199 H94      -0.9601    1.3249    4.7639   H         1 RES1   0.0000
   200 H95       0.2053    0.9648    3.4871   H         1 RES1   0.0000
   201 H96       0.9305   -0.6162    5.7682   H         1 RES1   0.0000
   202 H97       0.6707    1.0120    6.3526   H         1 RES1   0.0000
   203 H98       2.2268    1.9412    4.7690   H         1 RES1   0.0000
   204 H99       2.4501    0.3813    3.9772   H         1 RES1   0.0000
   205 H100      3.2893    0.9602    6.8565   H         1 RES1   0.0000
   206 H101      4.3087    1.1690    5.4367   H         1 RES1   0.0000
   207 H102      3.4294   -1.4462    5.1400   H         1 RES1   0.0000
   208 H103      3.5986   -1.3161    6.8802   H         1 RES1   0.0000
   209 H104      5.9470   -0.6794    6.6502   H         1 RES1   0.0000
   210 H105      5.8036   -0.7213    4.8914   H         1 RES1   0.0000
   211 H106      5.2456   -3.1208    6.6932   H         1 RES1   0.0000
   212 H107      6.7728   -2.8415    5.8851   H         1 RES1   0.0000
   213 H108      5.3213   -3.1379    4.9331   H         1 RES1   0.0000
   214 H109     -4.8875   -0.2711    1.6603   H         1 RES1   0.0000
   215 H110     -5.9833   -0.9296   -0.4433   H         1 RES1   0.0000
   216 H111     -5.7201   -1.8288   -2.8484   H         1 RES1   0.0000
   217 H112     -4.2583   -2.1914   -4.7768   H         1 RES1   0.0000
   218 H113     -1.8705   -1.9556   -5.7971   H         1 RES1   0.0000
   219 H114      0.4181   -1.1085   -5.5429   H         1 RES1   0.0000
   220 H115      3.3726    1.8507   -2.3404   H         1 RES1   0.0000
   221 H116      4.1528    1.6605   -3.9225   H         1 RES1   0.0000
   222 H117      3.9079   -0.4390   -1.7247   H         1 RES1   0.0000
   223 H118      5.3614    0.3626   -2.3158   H         1 RES1   0.0000
   224 H119      5.1644   -0.7218   -4.4838   H         1 RES1   0.0000
   225 H120      3.6312   -1.4757   -4.0251   H         1 RES1   0.0000
   226 H121      4.7449   -2.6796   -2.1835   H         1 RES1   0.0000
   227 H122      6.2964   -1.9772   -2.6366   H         1 RES1   0.0000
   228 H123      4.6045   -3.6795   -4.5106   H         1 RES1   0.0000
   229 H124      5.8859   -4.3301   -3.4840   H         1 RES1   0.0000
   230 H125      7.5048   -2.7350   -4.5934   H         1 RES1   0.0000
   231 H126      6.2318   -2.3104   -5.7421   H         1 RES1   0.0000
   232 H127      7.3184   -5.1245   -5.3022   H         1 RES1   0.0000
   233 H128      7.8247   -4.0283   -6.5854   H         1 RES1   0.0000
   234 H129      5.0153   -5.1771   -6.2343   H         1 RES1   0.0000
   235 H130      6.1880   -5.6052   -7.4760   H         1 RES1   0.0000
   236 H131      5.4760   -3.9916   -7.4671   H         1 RES1   0.0000
   237 H132      0.9914    1.0081   -5.3551   H         1 RES1   0.0000
   238 H133      2.6857    0.7402   -5.8325   H         1 RES1   0.0000
   239 H134      1.9027    3.0012   -6.2962   H         1 RES1   0.0000
   240 H135      3.2745    3.0578   -5.2055   H         1 RES1   0.0000
   241 H136      1.8017    3.4669   -3.2761   H         1 RES1   0.0000
   242 H137      0.3829    3.1243   -4.2695   H         1 RES1   0.0000
   243 H138      2.1983    5.5402   -4.5460   H         1 RES1   0.0000
   244 H139      0.5586    5.4995   -3.9317   H         1 RES1   0.0000
   245 H140     -0.0390    4.4949   -6.2932   H         1 RES1   0.0000
   246 H141      1.5113    5.1660   -6.7807   H         1 RES1   0.0000
   247 H142      0.0477    6.8918   -7.2782   H         1 RES1   0.0000
   248 H143      0.7156    7.3772   -5.7221   H         1 RES1   0.0000
   249 H144     -1.5992    7.7191   -5.3788   H         1 RES1   0.0000
   250 H145     -1.4893    6.0677   -4.8361   H         1 RES1   0.0000
   251 H146     -2.3725    7.0379   -7.5891   H         1 RES1   0.0000
   252 H147     -3.3590    6.1953   -6.4062   H         1 RES1   0.0000
   253 H148     -2.0596    5.3308   -7.2347   H         1 RES1   0.0000
   254 O5       -1.3475    2.9947    1.0861   O.3       1 RES1   0.0000
   255 H149     -0.9203    3.1728    1.9294   H         1 RES1   0.0000
   256 H150     -2.2864    3.1861    1.2161   H         1 RES1   0.0000
@<TRIPOS>BOND
     1     1    20    1
     2     1    32    1
     3     1    50    1
     4     1    53    1
     5     1   146    1
     6     1   158    1
     7     1   176    1
     8     1   179    1
     9     1   254    1
    10     2     3    1
    11     2    54    1
    12     2    55    1
    13     2    56    1
    14     3     4    1
    15     3    57    1
    16     3    58    1
    17     4     5    1
    18     4    59    1
    19     4    60    1
    20     5     6    1
    21     5    61    1
    22     5    62    1
    23     6     7    1
    24     6    63    1
    25     6    64    1
    26     7     8    1
    27     7    65    1
    28     7    66    1
    29     8     9    1
    30     8    67    1
    31     8    68    1
    32     9    10    1
    33     9    69    1
    34     9    70    1
    35    10    11    1
    36    10    19    1
    37    11    12    1
    38    11    71    1
    39    11    72    1
    40    12    13    1
    41    12    73    1
    42    12    74    1
    43    13    14    1
    44    13    75    1
    45    13    76    1
    46    14    15    1
    47    14    77    1
    48    14    78    1
    49    15    16    1
    50    15    79    1
    51    15    80    1
    52    16    17    1
    53    16    81    1
    54    16    82    1
    55    17    18    1
    56    17    83    1
    57    17    84    1
    58    18    85    1
    59    18    86    1
    60    18    87    1
    61    19    20    2
    62    19    21    1
    63    21    22    1
    64    21    53    2
    65    22    23    2
    66    22    88    1
    67    23    24    1
    68    23    89    1
    69    24    25    1
    70    24    52    2
    71    25    26    2
    72    25    90    1
    73    26    27    1
    74    26    91    1
    75    27    28    1
    76    27    51    2
    77    28    29    2
    78    28    92    1
    79    29    30    1
    80    29    93    1
    81    30    31    1
    82    30    50    2
    83    31    32    2
    84    31    33    1
    85    33    34    1
    86    33    42    1
    87    34    35    1
    88    34    94    1
    89    34    95    1
    90    35    36    1
    91    35    96    1
    92    35    97    1
    93    36    37    1
    94    36    98    1
    95    36    99    1
    96    37    38    1
    97    37   100    1
    98    37   101    1
    99    38    39    1
   100    38   102    1
   101    38   103    1
   102    39    40    1
   103    39   104    1
   104    39   105    1
   105    40    41    1
   106    40   106    1
   107    40   107    1
   108    41   108    1
   109    41   109    1
   110    41   110    1
   111    42    43    1
   112    42   111    1
   113    42   112    1
   114    43    44    1
   115    43   113    1
   116    43   114    1
   117    44    45    1
   118    44   115    1
   119    44   116    1
   120    45    46    1
   121    45   117    1
   122    45   118    1
   123    46    47    1
   124    46   119    1
   125    46   120    1
   126    47    48    1
   127    47   121    1
   128    47   122    1
   129    48    49    1
   130    48   123    1
   131    48   124    1
   132    49   125    1
   133    49   126    1
   134    49   127    1
   135    50    51    1
   136    51    52    1
   137    52    53    1
   138   128   129    1
   139   128   180    1
   140   128   181    1
   141   128   182    1
   142   129   130    1
   143   129   183    1
   144   129   184    1
   145   130   131    1
   146   130   185    1
   147   130   186    1
   148   131   132    1
   149   131   187    1
   150   131   188    1
   151   132   133    1
   152   132   189    1
   153   132   190    1
   154   133   134    1
   155   133   191    1
   156   133   192    1
   157   134   135    1
   158   134   193    1
   159   134   194    1
   160   135   136    1
   161   135   195    1
   162   135   196    1
   163   136   137    1
   164   136   145    1
   165   137   138    1
   166   137   197    1
   167   137   198    1
   168   138   139    1
   169   138   199    1
   170   138   200    1
   171   139   140    1
   172   139   201    1
   173   139   202    1
   174   140   141    1
   175   140   203    1
   176   140   204    1
   177   141   142    1
   178   141   205    1
   179   141   206    1
   180   142   143    1
   181   142   207    1
   182   142   208    1
   183   143   144    1
   184   143   209    1
   185   143   210    1
   186   144   211    1
   187   144   212    1
   188   144   213    1
   189   145   146    2
   190   145   147    1
   191   147   148    1
   192   147   179    2
   193   148   149    2
   194   148   214    1
   195   149   150    1
   196   149   215    1
   197   150   151    1
   198   150   178    2
   199   151   152    2
   200   151   216    1
   201   152   153    1
   202   152   217    1
   203   153   154    1
   204   153   177    2
   205   154   155    2
   206   154   218    1
   207   155   156    1
   208   155   219    1
   209   156   157    1
   210   156   176    2
   211   157   158    2
   212   157   159    1
   213   159   160    1
   214   159   168    1
   215   160   161    1
   216   160   220    1
   217   160   221    1
   218   161   162    1
   219   161   222    1
   220   161   223    1
   221   162   163    1
   222   162   224    1
   223   162   225    1
   224   163   164    1
   225   163   226    1
   226   163   227    1
   227   164   165    1
   228   164   228    1
   229   164   229    1
   230   165   166    1
   231   165   230    1
   232   165   231    1
   233   166   167    1
   234   166   232    1
   235   166   233    1
   236   167   234    1
   237   167   235    1
   238   167   236    1
   239   168   169    1
   240   168   237    1
   241   168   238    1
   242   169   170    1
   243   169   239    1
   244   169   240    1
   245   170   171    1
   246   170   241    1
   247   170   242    1
   248   171   172    1
   249   171   243    1
   250   171   244    1
   251   172   173    1
   252   172   245    1
   253   172   246    1
   254   173   174    1
   255   173   247    1
   256   173   248    1
   257   174   175    1
   258   174   249    1
   259   174   250    1
   260   175   251    1
   261   175   252    1
   262   175   253    1
   263   176   177    1
   264   177   178    1
   265   178   179    1
   266   254   255    1
   267   254   256    1
@<TRIPOS>SUBSTRUCTURE
     1 RES1      256 GROUP             0 ****  ****    0  
