@<TRIPOS>MOLECULE
am_c3_9H2O_c0_0_nunpairedes_0_charge_3 Charge: 3 Unpaired_Electrons: 2 XTB_Unpaired_Electrons: 0 XTB_Charge: 3
   439   444     1     0     0
SMALL
NoCharges
****
Generated from Architector

@<TRIPOS>ATOM
     1 Pr1      -0.4186    0.0686    0.2616   Pr        1 RES1   0.0000
     2 C1        2.3496    5.3192    8.7511   C.3       1 RES1   0.0000
     3 C2        3.1947    5.9986    7.6762   C.3       1 RES1   0.0000
     4 C3        2.5328    7.2847    7.1616   C.3       1 RES1   0.0000
     5 C4        2.7830    7.5587    5.6704   C.3       1 RES1   0.0000
     6 C5        1.5560    8.1493    4.9462   C.3       1 RES1   0.0000
     7 C6        1.2845    7.4602    3.6019   C.3       1 RES1   0.0000
     8 C7       -0.1546    7.6596    3.1107   C.3       1 RES1   0.0000
     9 C8       -0.6279    6.5946    2.1041   C.3       1 RES1   0.0000
    10 C9       -1.5048    5.4607    2.6732   C.3       1 RES1   0.0000
    11 C10      -2.3128    4.8702    1.5172   C.3       1 RES1   0.0000
    12 N1       -3.1696    3.6900    1.6771   N.am      1 RES1   0.0000
    13 C11      -4.5793    3.9587    1.9615   C.3       1 RES1   0.0000
    14 C12      -4.7047    4.5773    3.3624   C.3       1 RES1   0.0000
    15 C13      -6.0882    4.5285    4.0343   C.3       1 RES1   0.0000
    16 C14      -6.2841    3.3339    4.9762   C.3       1 RES1   0.0000
    17 C15      -6.5887    1.9891    4.3145   C.3       1 RES1   0.0000
    18 C16      -7.9784    1.8746    3.6689   C.3       1 RES1   0.0000
    19 C17      -7.9729    1.9998    2.1423   C.3       1 RES1   0.0000
    20 C18      -7.4334    0.7442    1.4584   C.3       1 RES1   0.0000
    21 C19      -7.3091    0.8712   -0.0614   C.3       1 RES1   0.0000
    22 C20      -8.6571    1.0214   -0.7544   C.3       1 RES1   0.0000
    23 C21      -2.6633    2.4628    1.5040   C.2       1 RES1   0.0000
    24 O1       -1.4714    2.1842    1.6876   O.2       1 RES1   0.0000
    25 C22      -3.5566    1.2665    1.1057   C.3       1 RES1   0.0000
    26 C23      -3.7692    0.4604    2.3776   C.3       1 RES1   0.0000
    27 O2       -2.7825    0.4397    0.2098   O.3       1 RES1   0.0000
    28 C24      -3.3236    0.2001   -1.0962   C.3       1 RES1   0.0000
    29 C25      -4.0523   -1.1630   -1.0694   C.3       1 RES1   0.0000
    30 C26      -3.1930   -2.3344   -1.5292   C.3       1 RES1   0.0000
    31 C27      -2.1563    0.2782   -2.1075   C.2       1 RES1   0.0000
    32 O3       -0.9924    0.4524   -1.6986   O.2       1 RES1   0.0000
    33 N2       -2.3660    0.1713   -3.4116   N.am      1 RES1   0.0000
    34 C28      -3.6657    0.1299   -4.0482   C.3       1 RES1   0.0000
    35 C29      -4.3336    1.4971   -4.0321   C.3       1 RES1   0.0000
    36 C30      -5.5038    1.5703   -5.0154   C.3       1 RES1   0.0000
    37 C31      -5.2424    2.3225   -6.3260   C.3       1 RES1   0.0000
    38 C32      -4.5249    3.6643   -6.1898   C.3       1 RES1   0.0000
    39 C33      -4.4284    4.4509   -7.5032   C.3       1 RES1   0.0000
    40 C34      -5.7610    4.8526   -8.1364   C.3       1 RES1   0.0000
    41 C35      -5.5667    5.2612   -9.6015   C.3       1 RES1   0.0000
    42 C36      -5.4695    4.0472  -10.5281   C.3       1 RES1   0.0000
    43 C37      -4.8596    4.3781  -11.8851   C.3       1 RES1   0.0000
    44 C38      -1.1891    0.2039   -4.2746   C.3       1 RES1   0.0000
    45 C39      -0.8518    1.5756   -4.8619   C.3       1 RES1   0.0000
    46 C40       0.4487    1.4880   -5.6661   C.3       1 RES1   0.0000
    47 C41       0.8550    2.8083   -6.3441   C.3       1 RES1   0.0000
    48 C42       1.9143    3.6542   -5.6286   C.3       1 RES1   0.0000
    49 C43       3.2348    2.9466   -5.3276   C.3       1 RES1   0.0000
    50 C44       4.0403    2.6655   -6.5959   C.3       1 RES1   0.0000
    51 C45       5.1258    1.6018   -6.4206   C.3       1 RES1   0.0000
    52 C46       4.5949    0.1802   -6.2078   C.3       1 RES1   0.0000
    53 C47       3.6976   -0.3091   -7.3404   C.3       1 RES1   0.0000
    54 H1        2.8563    4.4411    9.1440   H         1 RES1   0.0000
    55 H2        1.3905    5.0086    8.3397   H         1 RES1   0.0000
    56 H3        2.1602    5.9993    9.5770   H         1 RES1   0.0000
    57 H4        3.3372    5.2986    6.8449   H         1 RES1   0.0000
    58 H5        4.1833    6.2235    8.0783   H         1 RES1   0.0000
    59 H6        2.8898    8.1244    7.7531   H         1 RES1   0.0000
    60 H7        1.4602    7.2241    7.3414   H         1 RES1   0.0000
    61 H8        3.0729    6.6236    5.1795   H         1 RES1   0.0000
    62 H9        3.6328    8.2325    5.5799   H         1 RES1   0.0000
    63 H10       1.6919    9.2216    4.7953   H         1 RES1   0.0000
    64 H11       0.6790    8.0391    5.5849   H         1 RES1   0.0000
    65 H12       1.5148    6.3963    3.7003   H         1 RES1   0.0000
    66 H13       1.9699    7.8614    2.8572   H         1 RES1   0.0000
    67 H14      -0.2012    8.6405    2.6338   H         1 RES1   0.0000
    68 H15      -0.8482    7.6901    3.9524   H         1 RES1   0.0000
    69 H16      -1.2125    7.0994    1.3317   H         1 RES1   0.0000
    70 H17       0.2475    6.1642    1.6109   H         1 RES1   0.0000
    71 H18      -2.1644    5.8711    3.4311   H         1 RES1   0.0000
    72 H19      -0.9083    4.6754    3.1256   H         1 RES1   0.0000
    73 H20      -1.5921    4.6176    0.7385   H         1 RES1   0.0000
    74 H21      -2.9662    5.6588    1.1441   H         1 RES1   0.0000
    75 H22      -5.1495    3.0348    1.9196   H         1 RES1   0.0000
    76 H23      -4.9937    4.6407    1.2107   H         1 RES1   0.0000
    77 H24      -4.3952    5.6202    3.2971   H         1 RES1   0.0000
    78 H25      -4.0006    4.0559    4.0133   H         1 RES1   0.0000
    79 H26      -6.8878    4.5785    3.2962   H         1 RES1   0.0000
    80 H27      -6.1718    5.4260    4.6495   H         1 RES1   0.0000
    81 H28      -7.0914    3.5597    5.6734   H         1 RES1   0.0000
    82 H29      -5.3744    3.2211    5.5747   H         1 RES1   0.0000
    83 H30      -6.4922    1.2232    5.0864   H         1 RES1   0.0000
    84 H31      -5.8268    1.7905    3.5634   H         1 RES1   0.0000
    85 H32      -8.6357    2.6363    4.0890   H         1 RES1   0.0000
    86 H33      -8.4155    0.9061    3.9206   H         1 RES1   0.0000
    87 H34      -7.3805    2.8652    1.8379   H         1 RES1   0.0000
    88 H35      -8.9950    2.1675    1.8085   H         1 RES1   0.0000
    89 H36      -8.0918   -0.0951    1.6846   H         1 RES1   0.0000
    90 H37      -6.4535    0.5000    1.8720   H         1 RES1   0.0000
    91 H38      -6.8117   -0.0243   -0.4477   H         1 RES1   0.0000
    92 H39      -6.6817    1.7345   -0.3131   H         1 RES1   0.0000
    93 H40      -9.3172    0.2067   -0.4719   H         1 RES1   0.0000
    94 H41      -8.5421    1.0048   -1.8356   H         1 RES1   0.0000
    95 H42      -9.1317    1.9581   -0.4800   H         1 RES1   0.0000
    96 H43      -4.4946    1.5689    0.6281   H         1 RES1   0.0000
    97 H44      -2.7901    0.0929    2.7042   H         1 RES1   0.0000
    98 H45      -4.4422   -0.3743    2.2038   H         1 RES1   0.0000
    99 H46      -4.1764    1.0899    3.1599   H         1 RES1   0.0000
   100 H47      -4.0246    1.0087   -1.3334   H         1 RES1   0.0000
   101 H48      -4.3503   -1.3295   -0.0320   H         1 RES1   0.0000
   102 H49      -4.9660   -1.1112   -1.6601   H         1 RES1   0.0000
   103 H50      -2.1968   -2.2752   -1.0868   H         1 RES1   0.0000
   104 H51      -3.0895   -2.3453   -2.6086   H         1 RES1   0.0000
   105 H52      -3.6583   -3.2742   -1.2439   H         1 RES1   0.0000
   106 H53      -4.3121   -0.5991   -3.5604   H         1 RES1   0.0000
   107 H54      -3.5189   -0.1823   -5.0828   H         1 RES1   0.0000
   108 H55      -3.5801    2.2382   -4.2841   H         1 RES1   0.0000
   109 H56      -4.7036    1.7198   -3.0300   H         1 RES1   0.0000
   110 H57      -5.8070    0.5510   -5.2683   H         1 RES1   0.0000
   111 H58      -6.3446    2.0296   -4.5065   H         1 RES1   0.0000
   112 H59      -6.2149    2.4978   -6.7733   H         1 RES1   0.0000
   113 H60      -4.6857    1.6905   -7.0126   H         1 RES1   0.0000
   114 H61      -3.4955    3.5037   -5.8524   H         1 RES1   0.0000
   115 H62      -5.0301    4.2695   -5.4352   H         1 RES1   0.0000
   116 H63      -3.8597    3.8558   -8.2197   H         1 RES1   0.0000
   117 H64      -3.8482    5.3599   -7.3148   H         1 RES1   0.0000
   118 H65      -6.1870    5.6810   -7.5639   H         1 RES1   0.0000
   119 H66      -6.4627    4.0158   -8.1034   H         1 RES1   0.0000
   120 H67      -4.6566    5.8594   -9.6912   H         1 RES1   0.0000
   121 H68      -6.4021    5.8824   -9.9208   H         1 RES1   0.0000
   122 H69      -6.4652    3.6261  -10.6812   H         1 RES1   0.0000
   123 H70      -4.8648    3.2736  -10.0522   H         1 RES1   0.0000
   124 H71      -5.4516    5.1316  -12.3984   H         1 RES1   0.0000
   125 H72      -4.8271    3.4838  -12.5042   H         1 RES1   0.0000
   126 H73      -3.8420    4.7538  -11.7789   H         1 RES1   0.0000
   127 H74      -1.3620   -0.5003   -5.0870   H         1 RES1   0.0000
   128 H75      -0.3436   -0.1462   -3.6787   H         1 RES1   0.0000
   129 H76      -0.7557    2.3132   -4.0637   H         1 RES1   0.0000
   130 H77      -1.6530    1.8868   -5.5315   H         1 RES1   0.0000
   131 H78       0.3084    0.7275   -6.4367   H         1 RES1   0.0000
   132 H79       1.2530    1.1396   -5.0177   H         1 RES1   0.0000
   133 H80      -0.0392    3.4260   -6.4581   H         1 RES1   0.0000
   134 H81       1.2173    2.5877   -7.3484   H         1 RES1   0.0000
   135 H82       1.4949    4.0548   -4.7066   H         1 RES1   0.0000
   136 H83       2.1247    4.5103   -6.2697   H         1 RES1   0.0000
   137 H84       3.0443    2.0132   -4.7975   H         1 RES1   0.0000
   138 H85       3.8223    3.5823   -4.6626   H         1 RES1   0.0000
   139 H86       4.5085    3.5934   -6.9269   H         1 RES1   0.0000
   140 H87       3.3671    2.3435   -7.3878   H         1 RES1   0.0000
   141 H88       5.7659    1.8686   -5.5755   H         1 RES1   0.0000
   142 H89       5.7512    1.6029   -7.3152   H         1 RES1   0.0000
   143 H90       4.0492    0.1230   -5.2615   H         1 RES1   0.0000
   144 H91       5.4517   -0.4908   -6.1219   H         1 RES1   0.0000
   145 H92       2.7465    0.2161   -7.3447   H         1 RES1   0.0000
   146 H93       3.4937   -1.3731   -7.2396   H         1 RES1   0.0000
   147 H94       4.1804   -0.1498   -8.2999   H         1 RES1   0.0000
   148 C48      -8.2866    1.2651   -8.6110   C.3       1 RES1   0.0000
   149 C49      -8.7584    1.1460   -7.1648   C.3       1 RES1   0.0000
   150 C50      -9.1199    2.5285   -6.6072   C.3       1 RES1   0.0000
   151 C51      -9.0022    2.6434   -5.0791   C.3       1 RES1   0.0000
   152 C52      -8.3196    3.9475   -4.6537   C.3       1 RES1   0.0000
   153 C53      -7.8660    3.9555   -3.1900   C.3       1 RES1   0.0000
   154 C54      -6.8339    5.0663   -2.9440   C.3       1 RES1   0.0000
   155 C55      -5.7361    4.7198   -1.9175   C.3       1 RES1   0.0000
   156 C56      -4.3360    4.6750   -2.5461   C.3       1 RES1   0.0000
   157 C57      -3.2744    4.8253   -1.4546   C.3       1 RES1   0.0000
   158 N3       -1.8375    4.6654   -1.7580   N.am      1 RES1   0.0000
   159 C58      -1.1858    5.8372   -2.3518   C.3       1 RES1   0.0000
   160 C59      -1.7507    6.1489   -3.7512   C.3       1 RES1   0.0000
   161 C60      -1.3101    7.4408   -4.4671   C.3       1 RES1   0.0000
   162 C61      -0.1954    7.2635   -5.4986   C.3       1 RES1   0.0000
   163 C62       1.2047    7.1324   -4.9067   C.3       1 RES1   0.0000
   164 C63       1.7039    8.4087   -4.2119   C.3       1 RES1   0.0000
   165 C64       1.6612    8.3475   -2.6850   C.3       1 RES1   0.0000
   166 C65       2.6688    7.3492   -2.1208   C.3       1 RES1   0.0000
   167 C66       2.5143    7.1389   -0.6161   C.3       1 RES1   0.0000
   168 C67       2.7855    8.4130    0.1742   C.3       1 RES1   0.0000
   169 C68      -1.2329    3.5877   -1.2110   C.2       1 RES1   0.0000
   170 O4       -1.9104    2.6282   -0.8409   O.2       1 RES1   0.0000
   171 C69       0.3030    3.5249   -0.9251   C.3       1 RES1   0.0000
   172 C70       1.1048    3.1468   -2.1633   C.3       1 RES1   0.0000
   173 O5        0.5451    2.4938    0.0677   O.3       1 RES1   0.0000
   174 C71       1.1469    2.9324    1.3031   C.3       1 RES1   0.0000
   175 C72       2.6673    3.1571    1.1192   C.3       1 RES1   0.0000
   176 C73       3.4475    1.8468    1.1846   C.3       1 RES1   0.0000
   177 C74       0.9294    1.8277    2.3572   C.2       1 RES1   0.0000
   178 O6        0.7937    0.6424    1.9619   O.2       1 RES1   0.0000
   179 N4        0.9835    2.0746    3.6570   N.am      1 RES1   0.0000
   180 C75       1.1616    3.3633    4.3081   C.3       1 RES1   0.0000
   181 C76       0.0018    3.6948    5.2674   C.3       1 RES1   0.0000
   182 C77       0.0429    5.1648    5.7003   C.3       1 RES1   0.0000
   183 C78      -0.9362    5.5771    6.8093   C.3       1 RES1   0.0000
   184 C79      -2.4190    5.4972    6.4038   C.3       1 RES1   0.0000
   185 C80      -3.2509    4.6392    7.3576   C.3       1 RES1   0.0000
   186 C81      -3.3734    5.2196    8.7730   C.3       1 RES1   0.0000
   187 C82      -3.5066    4.1432    9.8571   C.3       1 RES1   0.0000
   188 C83      -2.2603    3.2733   10.0231   C.3       1 RES1   0.0000
   189 C84      -2.4325    2.2122   11.1056   C.3       1 RES1   0.0000
   190 C85       0.9196    0.9315    4.5716   C.3       1 RES1   0.0000
   191 C86      -0.5162    0.5033    4.9187   C.3       1 RES1   0.0000
   192 C87      -0.7378    0.4211    6.4332   C.3       1 RES1   0.0000
   193 C88      -2.2164    0.5330    6.7938   C.3       1 RES1   0.0000
   194 C89      -3.0726   -0.6139    6.2667   C.3       1 RES1   0.0000
   195 C90      -2.5012   -1.9794    6.6507   C.3       1 RES1   0.0000
   196 C91      -3.5892   -3.0442    6.7463   C.3       1 RES1   0.0000
   197 C92      -3.0606   -4.4770    6.8234   C.3       1 RES1   0.0000
   198 C93      -2.0099   -4.7290    7.9050   C.3       1 RES1   0.0000
   199 C94      -2.5119   -4.4309    9.3120   C.3       1 RES1   0.0000
   200 H95      -8.1048    0.2900   -9.0547   H         1 RES1   0.0000
   201 H96      -7.3602    1.8343   -8.6548   H         1 RES1   0.0000
   202 H97      -9.0299    1.7820   -9.2114   H         1 RES1   0.0000
   203 H98      -7.9609    0.6978   -6.5626   H         1 RES1   0.0000
   204 H99      -9.6217    0.4787   -7.1072   H         1 RES1   0.0000
   205 H100    -10.1326    2.7768   -6.9187   H         1 RES1   0.0000
   206 H101     -8.4634    3.2679   -7.0688   H         1 RES1   0.0000
   207 H102     -8.4168    1.8000   -4.7058   H         1 RES1   0.0000
   208 H103     -9.9888    2.5629   -4.6272   H         1 RES1   0.0000
   209 H104     -8.9852    4.7919   -4.8434   H         1 RES1   0.0000
   210 H105     -7.4421    4.0817   -5.2922   H         1 RES1   0.0000
   211 H106     -7.4409    2.9791   -2.9415   H         1 RES1   0.0000
   212 H107     -8.7202    4.1053   -2.5285   H         1 RES1   0.0000
   213 H108     -7.3620    5.9601   -2.6149   H         1 RES1   0.0000
   214 H109     -6.3522    5.3240   -3.8905   H         1 RES1   0.0000
   215 H110     -5.9721    3.7714   -1.4327   H         1 RES1   0.0000
   216 H111     -5.7256    5.4772   -1.1290   H         1 RES1   0.0000
   217 H112     -4.2970    5.4985   -3.2518   H         1 RES1   0.0000
   218 H113     -4.1704    3.7528   -3.0951   H         1 RES1   0.0000
   219 H114     -3.5104    4.0765   -0.6967   H         1 RES1   0.0000
   220 H115     -3.3745    5.8196   -1.0115   H         1 RES1   0.0000
   221 H116     -0.1152    5.6618   -2.4258   H         1 RES1   0.0000
   222 H117     -1.3492    6.7004   -1.6930   H         1 RES1   0.0000
   223 H118     -2.8208    6.2474   -3.6424   H         1 RES1   0.0000
   224 H119     -1.5532    5.3015   -4.4090   H         1 RES1   0.0000
   225 H120     -1.0479    8.2177   -3.7510   H         1 RES1   0.0000
   226 H121     -2.1800    7.8086   -5.0155   H         1 RES1   0.0000
   227 H122     -0.1988    8.1209   -6.1753   H         1 RES1   0.0000
   228 H123     -0.4174    6.3764   -6.0990   H         1 RES1   0.0000
   229 H124      1.8883    6.8858   -5.7192   H         1 RES1   0.0000
   230 H125      1.2173    6.2936   -4.2085   H         1 RES1   0.0000
   231 H126      1.1143    9.2617   -4.5508   H         1 RES1   0.0000
   232 H127      2.7352    8.6095   -4.5060   H         1 RES1   0.0000
   233 H128      0.6597    8.0788   -2.3427   H         1 RES1   0.0000
   234 H129      1.8904    9.3395   -2.2961   H         1 RES1   0.0000
   235 H130      3.6773    7.7078   -2.3272   H         1 RES1   0.0000
   236 H131      2.5581    6.3858   -2.6247   H         1 RES1   0.0000
   237 H132      3.2130    6.3605   -0.2940   H         1 RES1   0.0000
   238 H133      1.4973    6.7906   -0.3976   H         1 RES1   0.0000
   239 H134      3.7133    8.8734   -0.1521   H         1 RES1   0.0000
   240 H135      2.8817    8.1938    1.2342   H         1 RES1   0.0000
   241 H136      1.9791    9.1294    0.0449   H         1 RES1   0.0000
   242 H137      0.6244    4.4978   -0.5381   H         1 RES1   0.0000
   243 H138      0.9054    2.1023   -2.3988   H         1 RES1   0.0000
   244 H139      2.1733    3.2712   -2.0017   H         1 RES1   0.0000
   245 H140      0.8163    3.7609   -3.0085   H         1 RES1   0.0000
   246 H141      0.6311    3.8438    1.6234   H         1 RES1   0.0000
   247 H142      2.8177    3.6300    0.1474   H         1 RES1   0.0000
   248 H143      3.0329    3.8502    1.8763   H         1 RES1   0.0000
   249 H144      2.9180    1.0704    0.6330   H         1 RES1   0.0000
   250 H145      3.5735    1.5164    2.2119   H         1 RES1   0.0000
   251 H146      4.4362    1.9665    0.7559   H         1 RES1   0.0000
   252 H147      1.2641    4.1387    3.5505   H         1 RES1   0.0000
   253 H148      2.1014    3.3204    4.8665   H         1 RES1   0.0000
   254 H149      0.0611    3.0752    6.1590   H         1 RES1   0.0000
   255 H150     -0.9347    3.4580    4.7571   H         1 RES1   0.0000
   256 H151     -0.1557    5.8044    4.8512   H         1 RES1   0.0000
   257 H152      1.0576    5.3688    6.0392   H         1 RES1   0.0000
   258 H153     -0.6968    6.6055    7.0878   H         1 RES1   0.0000
   259 H154     -0.7785    4.9648    7.6953   H         1 RES1   0.0000
   260 H155     -2.4894    5.0656    5.4048   H         1 RES1   0.0000
   261 H156     -2.8571    6.4947    6.3448   H         1 RES1   0.0000
   262 H157     -2.7826    3.6560    7.4149   H         1 RES1   0.0000
   263 H158     -4.2463    4.5083    6.9305   H         1 RES1   0.0000
   264 H159     -4.2529    5.8643    8.8247   H         1 RES1   0.0000
   265 H160     -2.5014    5.8393    8.9910   H         1 RES1   0.0000
   266 H161     -4.3620    3.5017    9.6314   H         1 RES1   0.0000
   267 H162     -3.7078    4.6417   10.8045   H         1 RES1   0.0000
   268 H163     -1.4064    3.9074   10.2755   H         1 RES1   0.0000
   269 H164     -2.0338    2.7676    9.0810   H         1 RES1   0.0000
   270 H165     -2.5581    2.6750   12.0803   H         1 RES1   0.0000
   271 H166     -1.5534    1.5714   11.1396   H         1 RES1   0.0000
   272 H167     -3.3040    1.5897   10.9086   H         1 RES1   0.0000
   273 H168      1.4489    1.2171    5.4810   H         1 RES1   0.0000
   274 H169      1.4604    0.1037    4.1124   H         1 RES1   0.0000
   275 H170     -0.7530   -0.4610    4.4609   H         1 RES1   0.0000
   276 H171     -1.2083    1.2378    4.5013   H         1 RES1   0.0000
   277 H172     -0.2072    1.2387    6.9255   H         1 RES1   0.0000
   278 H173     -0.3186   -0.5033    6.8305   H         1 RES1   0.0000
   279 H174     -2.5937    1.4784    6.3971   H         1 RES1   0.0000
   280 H175     -2.3083    0.5704    7.8785   H         1 RES1   0.0000
   281 H176     -3.1752   -0.5378    5.1824   H         1 RES1   0.0000
   282 H177     -4.0691   -0.5093    6.6942   H         1 RES1   0.0000
   283 H178     -2.0095   -1.8882    7.6182   H         1 RES1   0.0000
   284 H179     -1.7496   -2.2855    5.9169   H         1 RES1   0.0000
   285 H180     -4.2358   -2.9619    5.8719   H         1 RES1   0.0000
   286 H181     -4.2035   -2.8464    7.6230   H         1 RES1   0.0000
   287 H182     -2.6255   -4.7498    5.8598   H         1 RES1   0.0000
   288 H183     -3.9081   -5.1429    7.0011   H         1 RES1   0.0000
   289 H184     -1.1175   -4.1323    7.7025   H         1 RES1   0.0000
   290 H185     -1.7153   -5.7798    7.8513   H         1 RES1   0.0000
   291 H186     -2.7275   -3.3722    9.4403   H         1 RES1   0.0000
   292 H187     -1.7542   -4.7104   10.0404   H         1 RES1   0.0000
   293 H188     -3.4180   -4.9971    9.5185   H         1 RES1   0.0000
   294 C95      -5.8772   -0.8254    9.2251   C.3       1 RES1   0.0000
   295 C96      -6.9864   -0.8587    8.1745   C.3       1 RES1   0.0000
   296 C97      -7.2016   -2.2660    7.5799   C.3       1 RES1   0.0000
   297 C98      -7.0839   -2.2999    6.0527   C.3       1 RES1   0.0000
   298 C99      -7.1630   -3.7242    5.4953   C.3       1 RES1   0.0000
   299 C100     -6.9578   -3.8389    3.9706   C.3       1 RES1   0.0000
   300 C101     -5.5231   -4.2246    3.5407   C.3       1 RES1   0.0000
   301 C102     -4.7756   -3.0756    2.8515   C.3       1 RES1   0.0000
   302 C103     -3.2452   -3.1927    2.8747   C.3       1 RES1   0.0000
   303 C104     -2.6740   -4.1277    1.8079   C.3       1 RES1   0.0000
   304 N5       -1.2087   -4.1853    1.8364   N.am      1 RES1   0.0000
   305 C105     -0.6302   -5.4052    2.3903   C.3       1 RES1   0.0000
   306 C106     -0.9638   -5.5213    3.8814   C.3       1 RES1   0.0000
   307 C107     -0.2978   -6.6869    4.6300   C.3       1 RES1   0.0000
   308 C108      0.9825   -6.3121    5.3839   C.3       1 RES1   0.0000
   309 C109      2.2504   -6.1065    4.5518   C.3       1 RES1   0.0000
   310 C110      2.8469   -7.3987    3.9729   C.3       1 RES1   0.0000
   311 C111      2.4482   -7.7038    2.5267   C.3       1 RES1   0.0000
   312 C112      3.1426   -6.7741    1.5330   C.3       1 RES1   0.0000
   313 C113      2.5703   -6.8600    0.1181   C.3       1 RES1   0.0000
   314 C114      2.7041   -8.2490   -0.4949   C.3       1 RES1   0.0000
   315 C115     -0.5347   -3.1061    1.4702   C.2       1 RES1   0.0000
   316 O7       -1.1051   -2.0367    1.1394   O.2       1 RES1   0.0000
   317 C116      0.9953   -3.1018    1.4332   C.3       1 RES1   0.0000
   318 C117      1.5135   -2.5958    2.7775   C.3       1 RES1   0.0000
   319 O8        1.4024   -2.1833    0.4212   O.3       1 RES1   0.0000
   320 C118      2.0124   -2.7826   -0.7240   C.3       1 RES1   0.0000
   321 C119      3.2707   -1.9583   -1.0607   C.3       1 RES1   0.0000
   322 C120      2.9076   -0.5767   -1.6039   C.3       1 RES1   0.0000
   323 C121      1.0461   -2.6854   -1.9137   C.2       1 RES1   0.0000
   324 O9        0.1472   -1.8308   -1.8227   O.2       1 RES1   0.0000
   325 N6        1.2834   -3.3966   -3.0137   N.am      1 RES1   0.0000
   326 C122      2.0909   -4.6088   -3.0841   C.3       1 RES1   0.0000
   327 C123      1.2093   -5.8679   -3.2353   C.3       1 RES1   0.0000
   328 C124      1.6120   -6.7645   -4.4091   C.3       1 RES1   0.0000
   329 C125      0.6522   -7.9422   -4.6370   C.3       1 RES1   0.0000
   330 C126     -0.8091   -7.5732   -4.9165   C.3       1 RES1   0.0000
   331 C127     -1.0585   -6.6262   -6.0940   C.3       1 RES1   0.0000
   332 C128     -0.9386   -7.2682   -7.4749   C.3       1 RES1   0.0000
   333 C129     -1.2357   -6.2662   -8.5983   C.3       1 RES1   0.0000
   334 C130     -0.0431   -5.3845   -8.9695   C.3       1 RES1   0.0000
   335 C131     -0.4263   -4.3128   -9.9850   C.3       1 RES1   0.0000
   336 C132      0.7296   -2.9794   -4.3049   C.3       1 RES1   0.0000
   337 C133     -0.7536   -3.2685   -4.5415   C.3       1 RES1   0.0000
   338 C134     -1.1072   -3.0110   -6.0127   C.3       1 RES1   0.0000
   339 C135     -2.6174   -2.9412   -6.2443   C.3       1 RES1   0.0000
   340 C136     -3.0353   -2.3892   -7.6130   C.3       1 RES1   0.0000
   341 C137     -2.2660   -1.1212   -7.9865   C.3       1 RES1   0.0000
   342 C138     -3.0103   -0.1591   -8.9158   C.3       1 RES1   0.0000
   343 C139     -2.7142    1.2958   -8.5480   C.3       1 RES1   0.0000
   344 C140     -1.3849    1.8596   -9.0620   C.3       1 RES1   0.0000
   345 C141     -1.5467    2.5831  -10.3942   C.3       1 RES1   0.0000
   346 H189     -5.8066    0.1631    9.6771   H         1 RES1   0.0000
   347 H190     -4.9144   -1.0623    8.7740   H         1 RES1   0.0000
   348 H191     -6.0756   -1.5466   10.0159   H         1 RES1   0.0000
   349 H192     -6.7360   -0.1533    7.3766   H         1 RES1   0.0000
   350 H193     -7.9076   -0.5009    8.6345   H         1 RES1   0.0000
   351 H194     -8.1825   -2.6431    7.8697   H         1 RES1   0.0000
   352 H195     -6.4640   -2.9491    8.0047   H         1 RES1   0.0000
   353 H196     -6.1366   -1.8406    5.7622   H         1 RES1   0.0000
   354 H197     -7.8879   -1.6973    5.6234   H         1 RES1   0.0000
   355 H198     -8.1410   -4.1329    5.7530   H         1 RES1   0.0000
   356 H199     -6.4224   -4.3430    6.0058   H         1 RES1   0.0000
   357 H200     -7.2518   -2.9017    3.4904   H         1 RES1   0.0000
   358 H201     -7.6421   -4.5981    3.5947   H         1 RES1   0.0000
   359 H202     -5.5653   -5.0921    2.8775   H         1 RES1   0.0000
   360 H203     -4.9641   -4.5244    4.4288   H         1 RES1   0.0000
   361 H204     -5.0381   -2.1562    3.3766   H         1 RES1   0.0000
   362 H205     -5.1212   -2.9798    1.8194   H         1 RES1   0.0000
   363 H206     -2.9348   -3.5227    3.8635   H         1 RES1   0.0000
   364 H207     -2.8056   -2.2094    2.6959   H         1 RES1   0.0000
   365 H208     -2.9642   -3.7596    0.8238   H         1 RES1   0.0000
   366 H209     -3.0511   -5.1409    1.9326   H         1 RES1   0.0000
   367 H210      0.4464   -5.4234    2.2543   H         1 RES1   0.0000
   368 H211     -1.0521   -6.2585    1.8520   H         1 RES1   0.0000
   369 H212     -2.0438   -5.6392    3.9649   H         1 RES1   0.0000
   370 H213     -0.6837   -4.5885    4.3773   H         1 RES1   0.0000
   371 H214     -0.1251   -7.5252    3.9580   H         1 RES1   0.0000
   372 H215     -1.0076   -7.0290    5.3837   H         1 RES1   0.0000
   373 H216      1.1921   -7.0960    6.1131   H         1 RES1   0.0000
   374 H217      0.7846   -5.3982    5.9520   H         1 RES1   0.0000
   375 H218      2.9931   -5.6607    5.2162   H         1 RES1   0.0000
   376 H219      2.0632   -5.3847    3.7540   H         1 RES1   0.0000
   377 H220      2.5575   -8.2372    4.6077   H         1 RES1   0.0000
   378 H221      3.9372   -7.3387    4.0068   H         1 RES1   0.0000
   379 H222      1.3663   -7.6272    2.4031   H         1 RES1   0.0000
   380 H223      2.7339   -8.7314    2.3034   H         1 RES1   0.0000
   381 H224      4.2053   -7.0149    1.4997   H         1 RES1   0.0000
   382 H225      3.0615   -5.7400    1.8828   H         1 RES1   0.0000
   383 H226      3.1058   -6.1438   -0.5147   H         1 RES1   0.0000
   384 H227      1.5113   -6.5728    0.1330   H         1 RES1   0.0000
   385 H228      3.7426   -8.5675   -0.4892   H         1 RES1   0.0000
   386 H229      2.3557   -8.2549   -1.5255   H         1 RES1   0.0000
   387 H230      2.1185   -8.9737    0.0625   H         1 RES1   0.0000
   388 H231      1.4086   -4.0883    1.2054   H         1 RES1   0.0000
   389 H232      1.2278   -1.5470    2.8579   H         1 RES1   0.0000
   390 H233      2.5970   -2.6801    2.8253   H         1 RES1   0.0000
   391 H234      1.0838   -3.1564    3.6023   H         1 RES1   0.0000
   392 H235      2.2912   -3.8145   -0.4907   H         1 RES1   0.0000
   393 H236      3.8504   -1.8596   -0.1411   H         1 RES1   0.0000
   394 H237      3.8799   -2.5080   -1.7787   H         1 RES1   0.0000
   395 H238      2.0558   -0.1502   -1.0399   H         1 RES1   0.0000
   396 H239      2.6238   -0.6464   -2.6501   H         1 RES1   0.0000
   397 H240      3.7591    0.0939   -1.5318   H         1 RES1   0.0000
   398 H241      2.7203   -4.7010   -2.2050   H         1 RES1   0.0000
   399 H242      2.7553   -4.5145   -3.9461   H         1 RES1   0.0000
   400 H243      0.1798   -5.5551   -3.3803   H         1 RES1   0.0000
   401 H244      1.2403   -6.4580   -2.3198   H         1 RES1   0.0000
   402 H245      2.6101   -7.1668   -4.2182   H         1 RES1   0.0000
   403 H246      1.6690   -6.1753   -5.3265   H         1 RES1   0.0000
   404 H247      0.6657   -8.5981   -3.7620   H         1 RES1   0.0000
   405 H248      1.0340   -8.5267   -5.4730   H         1 RES1   0.0000
   406 H249     -1.2395   -7.1306   -4.0140   H         1 RES1   0.0000
   407 H250     -1.3560   -8.4995   -5.0984   H         1 RES1   0.0000
   408 H251     -0.3747   -5.7804   -6.0412   H         1 RES1   0.0000
   409 H252     -2.0754   -6.2373   -5.9884   H         1 RES1   0.0000
   410 H253     -1.6508   -8.0908   -7.5417   H         1 RES1   0.0000
   411 H254      0.0623   -7.6814   -7.6070   H         1 RES1   0.0000
   412 H255     -2.0725   -5.6272   -8.3014   H         1 RES1   0.0000
   413 H256     -1.5459   -6.8034   -9.4955   H         1 RES1   0.0000
   414 H257      0.7476   -6.0058   -9.3931   H         1 RES1   0.0000
   415 H258      0.3646   -4.9041   -8.0752   H         1 RES1   0.0000
   416 H259     -0.8128   -4.7734  -10.8902   H         1 RES1   0.0000
   417 H260      0.4366   -3.7060  -10.2524   H         1 RES1   0.0000
   418 H261     -1.1978   -3.6559   -9.5883   H         1 RES1   0.0000
   419 H262      1.3126   -3.4919   -5.0724   H         1 RES1   0.0000
   420 H263      0.8948   -1.9027   -4.4154   H         1 RES1   0.0000
   421 H264     -1.3518   -2.6387   -3.8793   H         1 RES1   0.0000
   422 H265     -0.9679   -4.3083   -4.3013   H         1 RES1   0.0000
   423 H266     -0.6909   -3.8041   -6.6321   H         1 RES1   0.0000
   424 H267     -0.6325   -2.0838   -6.3351   H         1 RES1   0.0000
   425 H268     -3.0604   -2.3130   -5.4658   H         1 RES1   0.0000
   426 H269     -3.0340   -3.9405   -6.1180   H         1 RES1   0.0000
   427 H270     -4.1043   -2.1734   -7.5609   H         1 RES1   0.0000
   428 H271     -2.8962   -3.1440   -8.3850   H         1 RES1   0.0000
   429 H272     -2.0416   -0.5747   -7.0665   H         1 RES1   0.0000
   430 H273     -1.3134   -1.3993   -8.4381   H         1 RES1   0.0000
   431 H274     -4.0881   -0.3204   -8.8409   H         1 RES1   0.0000
   432 H275     -2.7235   -0.3478   -9.9465   H         1 RES1   0.0000
   433 H276     -2.7283    1.3757   -7.4572   H         1 RES1   0.0000
   434 H277     -3.5191    1.9186   -8.9368   H         1 RES1   0.0000
   435 H278     -0.6501    1.0577   -9.1590   H         1 RES1   0.0000
   436 H279     -0.9975    2.5745   -8.3335   H         1 RES1   0.0000
   437 H280     -1.9346    1.9122  -11.1563   H         1 RES1   0.0000
   438 H281     -0.5917    2.9800  -10.7306   H         1 RES1   0.0000
   439 H282     -2.2410    3.4161  -10.2877   H         1 RES1   0.0000
@<TRIPOS>BOND
     1     1    24    1
     2     1    27    1
     3     1    32    1
     4     1   170    1
     5     1   173    1
     6     1   178    1
     7     1   316    1
     8     1   319    1
     9     1   324    1
    10     2     3    1
    11     2    54    1
    12     2    55    1
    13     2    56    1
    14     3     4    1
    15     3    57    1
    16     3    58    1
    17     4     5    1
    18     4    59    1
    19     4    60    1
    20     5     6    1
    21     5    61    1
    22     5    62    1
    23     6     7    1
    24     6    63    1
    25     6    64    1
    26     7     8    1
    27     7    65    1
    28     7    66    1
    29     8     9    1
    30     8    67    1
    31     8    68    1
    32     9    10    1
    33     9    69    1
    34     9    70    1
    35    10    11    1
    36    10    71    1
    37    10    72    1
    38    11    12    1
    39    11    73    1
    40    11    74    1
    41    12    13    1
    42    12    23    1
    43    13    14    1
    44    13    75    1
    45    13    76    1
    46    14    15    1
    47    14    77    1
    48    14    78    1
    49    15    16    1
    50    15    79    1
    51    15    80    1
    52    16    17    1
    53    16    81    1
    54    16    82    1
    55    17    18    1
    56    17    83    1
    57    17    84    1
    58    18    19    1
    59    18    85    1
    60    18    86    1
    61    19    20    1
    62    19    87    1
    63    19    88    1
    64    20    21    1
    65    20    89    1
    66    20    90    1
    67    21    22    1
    68    21    91    1
    69    21    92    1
    70    22    93    1
    71    22    94    1
    72    22    95    1
    73    23    24    2
    74    23    25    1
    75    25    26    1
    76    25    27    1
    77    25    96    1
    78    26    97    1
    79    26    98    1
    80    26    99    1
    81    27    28    1
    82    28    29    1
    83    28    31    1
    84    28   100    1
    85    29    30    1
    86    29   101    1
    87    29   102    1
    88    30   103    1
    89    30   104    1
    90    30   105    1
    91    31    32    2
    92    31    33    1
    93    33    34    1
    94    33    44    1
    95    34    35    1
    96    34   106    1
    97    34   107    1
    98    35    36    1
    99    35   108    1
   100    35   109    1
   101    36    37    1
   102    36   110    1
   103    36   111    1
   104    37    38    1
   105    37   112    1
   106    37   113    1
   107    38    39    1
   108    38   114    1
   109    38   115    1
   110    39    40    1
   111    39   116    1
   112    39   117    1
   113    40    41    1
   114    40   118    1
   115    40   119    1
   116    41    42    1
   117    41   120    1
   118    41   121    1
   119    42    43    1
   120    42   122    1
   121    42   123    1
   122    43   124    1
   123    43   125    1
   124    43   126    1
   125    44    45    1
   126    44   127    1
   127    44   128    1
   128    45    46    1
   129    45   129    1
   130    45   130    1
   131    46    47    1
   132    46   131    1
   133    46   132    1
   134    47    48    1
   135    47   133    1
   136    47   134    1
   137    48    49    1
   138    48   135    1
   139    48   136    1
   140    49    50    1
   141    49   137    1
   142    49   138    1
   143    50    51    1
   144    50   139    1
   145    50   140    1
   146    51    52    1
   147    51   141    1
   148    51   142    1
   149    52    53    1
   150    52   143    1
   151    52   144    1
   152    53   145    1
   153    53   146    1
   154    53   147    1
   155   148   149    1
   156   148   200    1
   157   148   201    1
   158   148   202    1
   159   149   150    1
   160   149   203    1
   161   149   204    1
   162   150   151    1
   163   150   205    1
   164   150   206    1
   165   151   152    1
   166   151   207    1
   167   151   208    1
   168   152   153    1
   169   152   209    1
   170   152   210    1
   171   153   154    1
   172   153   211    1
   173   153   212    1
   174   154   155    1
   175   154   213    1
   176   154   214    1
   177   155   156    1
   178   155   215    1
   179   155   216    1
   180   156   157    1
   181   156   217    1
   182   156   218    1
   183   157   158    1
   184   157   219    1
   185   157   220    1
   186   158   159    1
   187   158   169    1
   188   159   160    1
   189   159   221    1
   190   159   222    1
   191   160   161    1
   192   160   223    1
   193   160   224    1
   194   161   162    1
   195   161   225    1
   196   161   226    1
   197   162   163    1
   198   162   227    1
   199   162   228    1
   200   163   164    1
   201   163   229    1
   202   163   230    1
   203   164   165    1
   204   164   231    1
   205   164   232    1
   206   165   166    1
   207   165   233    1
   208   165   234    1
   209   166   167    1
   210   166   235    1
   211   166   236    1
   212   167   168    1
   213   167   237    1
   214   167   238    1
   215   168   239    1
   216   168   240    1
   217   168   241    1
   218   169   170    2
   219   169   171    1
   220   171   172    1
   221   171   173    1
   222   171   242    1
   223   172   243    1
   224   172   244    1
   225   172   245    1
   226   173   174    1
   227   174   175    1
   228   174   177    1
   229   174   246    1
   230   175   176    1
   231   175   247    1
   232   175   248    1
   233   176   249    1
   234   176   250    1
   235   176   251    1
   236   177   178    2
   237   177   179    1
   238   179   180    1
   239   179   190    1
   240   180   181    1
   241   180   252    1
   242   180   253    1
   243   181   182    1
   244   181   254    1
   245   181   255    1
   246   182   183    1
   247   182   256    1
   248   182   257    1
   249   183   184    1
   250   183   258    1
   251   183   259    1
   252   184   185    1
   253   184   260    1
   254   184   261    1
   255   185   186    1
   256   185   262    1
   257   185   263    1
   258   186   187    1
   259   186   264    1
   260   186   265    1
   261   187   188    1
   262   187   266    1
   263   187   267    1
   264   188   189    1
   265   188   268    1
   266   188   269    1
   267   189   270    1
   268   189   271    1
   269   189   272    1
   270   190   191    1
   271   190   273    1
   272   190   274    1
   273   191   192    1
   274   191   275    1
   275   191   276    1
   276   192   193    1
   277   192   277    1
   278   192   278    1
   279   193   194    1
   280   193   279    1
   281   193   280    1
   282   194   195    1
   283   194   281    1
   284   194   282    1
   285   195   196    1
   286   195   283    1
   287   195   284    1
   288   196   197    1
   289   196   285    1
   290   196   286    1
   291   197   198    1
   292   197   287    1
   293   197   288    1
   294   198   199    1
   295   198   289    1
   296   198   290    1
   297   199   291    1
   298   199   292    1
   299   199   293    1
   300   294   295    1
   301   294   346    1
   302   294   347    1
   303   294   348    1
   304   295   296    1
   305   295   349    1
   306   295   350    1
   307   296   297    1
   308   296   351    1
   309   296   352    1
   310   297   298    1
   311   297   353    1
   312   297   354    1
   313   298   299    1
   314   298   355    1
   315   298   356    1
   316   299   300    1
   317   299   357    1
   318   299   358    1
   319   300   301    1
   320   300   359    1
   321   300   360    1
   322   301   302    1
   323   301   361    1
   324   301   362    1
   325   302   303    1
   326   302   363    1
   327   302   364    1
   328   303   304    1
   329   303   365    1
   330   303   366    1
   331   304   305    1
   332   304   315    1
   333   305   306    1
   334   305   367    1
   335   305   368    1
   336   306   307    1
   337   306   369    1
   338   306   370    1
   339   307   308    1
   340   307   371    1
   341   307   372    1
   342   308   309    1
   343   308   373    1
   344   308   374    1
   345   309   310    1
   346   309   375    1
   347   309   376    1
   348   310   311    1
   349   310   377    1
   350   310   378    1
   351   311   312    1
   352   311   379    1
   353   311   380    1
   354   312   313    1
   355   312   381    1
   356   312   382    1
   357   313   314    1
   358   313   383    1
   359   313   384    1
   360   314   385    1
   361   314   386    1
   362   314   387    1
   363   315   316    2
   364   315   317    1
   365   317   318    1
   366   317   319    1
   367   317   388    1
   368   318   389    1
   369   318   390    1
   370   318   391    1
   371   319   320    1
   372   320   321    1
   373   320   323    1
   374   320   392    1
   375   321   322    1
   376   321   393    1
   377   321   394    1
   378   322   395    1
   379   322   396    1
   380   322   397    1
   381   323   324    2
   382   323   325    1
   383   325   326    1
   384   325   336    1
   385   326   327    1
   386   326   398    1
   387   326   399    1
   388   327   328    1
   389   327   400    1
   390   327   401    1
   391   328   329    1
   392   328   402    1
   393   328   403    1
   394   329   330    1
   395   329   404    1
   396   329   405    1
   397   330   331    1
   398   330   406    1
   399   330   407    1
   400   331   332    1
   401   331   408    1
   402   331   409    1
   403   332   333    1
   404   332   410    1
   405   332   411    1
   406   333   334    1
   407   333   412    1
   408   333   413    1
   409   334   335    1
   410   334   414    1
   411   334   415    1
   412   335   416    1
   413   335   417    1
   414   335   418    1
   415   336   337    1
   416   336   419    1
   417   336   420    1
   418   337   338    1
   419   337   421    1
   420   337   422    1
   421   338   339    1
   422   338   423    1
   423   338   424    1
   424   339   340    1
   425   339   425    1
   426   339   426    1
   427   340   341    1
   428   340   427    1
   429   340   428    1
   430   341   342    1
   431   341   429    1
   432   341   430    1
   433   342   343    1
   434   342   431    1
   435   342   432    1
   436   343   344    1
   437   343   433    1
   438   343   434    1
   439   344   345    1
   440   344   435    1
   441   344   436    1
   442   345   437    1
   443   345   438    1
   444   345   439    1
@<TRIPOS>SUBSTRUCTURE
     1 RES1      439 GROUP             0 ****  ****    0  
