@<TRIPOS>MOLECULE
tricapped_trigonal_prismatic_0_nunpairedes_0_charge_3 Charge: 3 Unpaired_Electrons: 2 XTB_Unpaired_Electrons: 0 XTB_Charge: 3
   430   435     1     0     0
SMALL
NoCharges
****
Generated from Architector

@<TRIPOS>ATOM
     1 Pr1      -0.0963    0.1023   -0.1099   Pr        1 RES1   0.0000
     2 C1        4.8379    7.1361   -7.4384   C.3       1 RES1   0.0000
     3 C2        6.1891    6.5268   -7.0814   C.3       1 RES1   0.0000
     4 C3        6.8132    7.0934   -5.8063   C.3       1 RES1   0.0000
     5 C4        6.0058    6.7821   -4.5368   C.3       1 RES1   0.0000
     6 C5        5.0993    7.9388   -4.1052   C.3       1 RES1   0.0000
     7 C6        4.4600    7.7656   -2.7217   C.3       1 RES1   0.0000
     8 C7        3.0897    7.0785   -2.7138   C.3       1 RES1   0.0000
     9 C8        3.0544    5.6400   -3.2403   C.3       1 RES1   0.0000
    10 C9        3.9834    4.7261   -2.4474   C.3       1 RES1   0.0000
    11 C10       4.0106    3.2527   -2.8877   C.3       1 RES1   0.0000
    12 N1        2.7960    2.4413   -2.7650   N.am      1 RES1   0.0000
    13 C11       2.3293    1.7893   -3.9879   C.3       1 RES1   0.0000
    14 C12       1.6100    2.6935   -4.9794   C.3       1 RES1   0.0000
    15 C13       0.2032    3.0997   -4.5483   C.3       1 RES1   0.0000
    16 C14      -0.4744    3.9011   -5.6655   C.3       1 RES1   0.0000
    17 C15      -2.0010    3.8681   -5.6066   C.3       1 RES1   0.0000
    18 C16      -2.6097    2.5662   -6.1308   C.3       1 RES1   0.0000
    19 C17      -2.5565    2.4454   -7.6540   C.3       1 RES1   0.0000
    20 C18      -3.4186    1.3020   -8.1955   C.3       1 RES1   0.0000
    21 C19      -2.8811   -0.0995   -7.9007   C.3       1 RES1   0.0000
    22 C20      -1.6427   -0.4410   -8.7190   C.3       1 RES1   0.0000
    23 C21       2.2668    2.0308   -1.6194   C.2       1 RES1   0.0000
    24 O1        1.2461    1.3087   -1.5648   O.2       1 RES1   0.0000
    25 C22       2.9391    2.4087   -0.3023   C.3       1 RES1   0.0000
    26 C23       3.9570    1.3481    0.1279   C.3       1 RES1   0.0000
    27 O2        1.9376    2.4860    0.7000   O.3       1 RES1   0.0000
    28 C24       1.5468    3.8265    1.0258   C.3       1 RES1   0.0000
    29 C25       2.7190    4.5327    1.7239   C.3       1 RES1   0.0000
    30 C26       0.1421    3.6193    1.6595   C.2       1 RES1   0.0000
    31 O3       -0.4509    2.5871    1.2750   O.2       1 RES1   0.0000
    32 N2       -0.4485    4.4889    2.4800   N.am      1 RES1   0.0000
    33 C27       0.1333    5.7278    2.9967   C.3       1 RES1   0.0000
    34 C28      -0.1645    6.0745    4.4686   C.3       1 RES1   0.0000
    35 C29       0.5142    5.2336    5.5777   C.3       1 RES1   0.0000
    36 C30       1.6031    4.2704    5.1074   C.3       1 RES1   0.0000
    37 C31       2.0796    3.3314    6.2192   C.3       1 RES1   0.0000
    38 C32       3.2374    2.4465    5.7482   C.3       1 RES1   0.0000
    39 C33       3.4830    1.2616    6.6827   C.3       1 RES1   0.0000
    40 C34       4.6832    0.4231    6.2397   C.3       1 RES1   0.0000
    41 C35       4.8586   -0.8285    7.1020   C.3       1 RES1   0.0000
    42 C36       6.0044   -1.7291    6.6518   C.3       1 RES1   0.0000
    43 C37      -1.8859    4.3676    2.7588   C.3       1 RES1   0.0000
    44 C38      -2.2060    3.4900    3.9803   C.3       1 RES1   0.0000
    45 C39      -3.6012    3.7653    4.5743   C.3       1 RES1   0.0000
    46 C40      -4.5105    2.5401    4.7437   C.3       1 RES1   0.0000
    47 C41      -4.2481    1.6075    5.9356   C.3       1 RES1   0.0000
    48 C42      -3.1579    0.5459    5.7024   C.3       1 RES1   0.0000
    49 C43      -3.5977   -0.8932    6.0091   C.3       1 RES1   0.0000
    50 C44      -2.4741   -1.9134    5.7295   C.3       1 RES1   0.0000
    51 C45      -2.9552   -3.1498    4.9558   C.3       1 RES1   0.0000
    52 C46      -1.9413   -3.7651    3.9865   C.3       1 RES1   0.0000
    53 H1        4.4957    6.7470   -8.3959   H         1 RES1   0.0000
    54 H2        4.9205    8.2184   -7.5206   H         1 RES1   0.0000
    55 H3        4.0810    6.9008   -6.6911   H         1 RES1   0.0000
    56 H4        6.8789    6.7096   -7.9055   H         1 RES1   0.0000
    57 H5        6.0867    5.4420   -6.9770   H         1 RES1   0.0000
    58 H6        6.9316    8.1734   -5.9090   H         1 RES1   0.0000
    59 H7        7.8147    6.6684   -5.7068   H         1 RES1   0.0000
    60 H8        6.6989    6.5739   -3.7155   H         1 RES1   0.0000
    61 H9        5.4227    5.8762   -4.7173   H         1 RES1   0.0000
    62 H10       4.3189    8.1033   -4.8474   H         1 RES1   0.0000
    63 H11       5.7186    8.8365   -4.0779   H         1 RES1   0.0000
    64 H12       4.3124    8.7581   -2.2889   H         1 RES1   0.0000
    65 H13       5.1544    7.2380   -2.0636   H         1 RES1   0.0000
    66 H14       2.4021    7.6817   -3.3101   H         1 RES1   0.0000
    67 H15       2.7162    7.0862   -1.6841   H         1 RES1   0.0000
    68 H16       3.3430    5.6388   -4.2905   H         1 RES1   0.0000
    69 H17       2.0296    5.2702   -3.1675   H         1 RES1   0.0000
    70 H18       3.7559    4.8542   -1.3875   H         1 RES1   0.0000
    71 H19       5.0068    5.0726   -2.5931   H         1 RES1   0.0000
    72 H20       4.8256    2.7545   -2.3533   H         1 RES1   0.0000
    73 H21       4.2602    3.2469   -3.9484   H         1 RES1   0.0000
    74 H22       1.6516    0.9900   -3.6734   H         1 RES1   0.0000
    75 H23       3.2089    1.3511   -4.4736   H         1 RES1   0.0000
    76 H24       1.5373    2.1388   -5.9185   H         1 RES1   0.0000
    77 H25       2.1966    3.5888   -5.1770   H         1 RES1   0.0000
    78 H26       0.2456    3.6958   -3.6342   H         1 RES1   0.0000
    79 H27      -0.3821    2.2073   -4.3125   H         1 RES1   0.0000
    80 H28      -0.1576    3.5085   -6.6322   H         1 RES1   0.0000
    81 H29      -0.1326    4.9355   -5.6117   H         1 RES1   0.0000
    82 H30      -2.3894    4.6931   -6.2052   H         1 RES1   0.0000
    83 H31      -2.3189    4.0289   -4.5746   H         1 RES1   0.0000
    84 H32      -3.6588    2.5321   -5.8306   H         1 RES1   0.0000
    85 H33      -2.1058    1.7118   -5.6727   H         1 RES1   0.0000
    86 H34      -1.5282    2.3142   -7.9896   H         1 RES1   0.0000
    87 H35      -2.9221    3.3794   -8.0844   H         1 RES1   0.0000
    88 H36      -3.5031    1.4154   -9.2776   H         1 RES1   0.0000
    89 H37      -4.4240    1.3935   -7.7758   H         1 RES1   0.0000
    90 H38      -3.6647   -0.8221   -8.1373   H         1 RES1   0.0000
    91 H39      -2.6632   -0.1891   -6.8334   H         1 RES1   0.0000
    92 H40      -1.8503   -0.3197   -9.7785   H         1 RES1   0.0000
    93 H41      -1.3429   -1.4726   -8.5512   H         1 RES1   0.0000
    94 H42      -0.8074    0.2049   -8.4624   H         1 RES1   0.0000
    95 H43       3.4562    3.3584   -0.4044   H         1 RES1   0.0000
    96 H44       3.4322    0.4604    0.4819   H         1 RES1   0.0000
    97 H45       4.5589    1.7489    0.9441   H         1 RES1   0.0000
    98 H46       4.6218    1.0829   -0.6916   H         1 RES1   0.0000
    99 H47       1.3086    4.3727    0.0925   H         1 RES1   0.0000
   100 H48       2.7718    4.3056    2.7816   H         1 RES1   0.0000
   101 H49       2.6963    5.6073    1.5699   H         1 RES1   0.0000
   102 H50       3.6595    4.1868    1.2925   H         1 RES1   0.0000
   103 H51      -0.2639    6.5501    2.3886   H         1 RES1   0.0000
   104 H52       1.2072    5.7019    2.8764   H         1 RES1   0.0000
   105 H53      -1.2387    6.0897    4.6520   H         1 RES1   0.0000
   106 H54       0.1662    7.1101    4.5655   H         1 RES1   0.0000
   107 H55      -0.2405    4.6618    6.1229   H         1 RES1   0.0000
   108 H56       0.9566    5.9191    6.3014   H         1 RES1   0.0000
   109 H57       2.4611    4.8490    4.7579   H         1 RES1   0.0000
   110 H58       1.2176    3.6610    4.2850   H         1 RES1   0.0000
   111 H59       1.2442    2.7041    6.5468   H         1 RES1   0.0000
   112 H60       2.4123    3.9173    7.0775   H         1 RES1   0.0000
   113 H61       4.1476    3.0457    5.6914   H         1 RES1   0.0000
   114 H62       3.0288    2.0735    4.7383   H         1 RES1   0.0000
   115 H63       2.5837    0.6363    6.7202   H         1 RES1   0.0000
   116 H64       3.6582    1.6319    7.6946   H         1 RES1   0.0000
   117 H65       5.5830    1.0362    6.3129   H         1 RES1   0.0000
   118 H66       4.5602    0.1425    5.1867   H         1 RES1   0.0000
   119 H67       3.9289   -1.4078    7.1060   H         1 RES1   0.0000
   120 H68       5.0459   -0.5176    8.1301   H         1 RES1   0.0000
   121 H69       5.8535   -2.0985    5.6366   H         1 RES1   0.0000
   122 H70       6.0808   -2.5869    7.3159   H         1 RES1   0.0000
   123 H71       6.9522   -1.1968    6.6825   H         1 RES1   0.0000
   124 H72      -2.3867    3.9829    1.8662   H         1 RES1   0.0000
   125 H73      -2.2492    5.3834    2.9356   H         1 RES1   0.0000
   126 H74      -1.4434    3.6630    4.7367   H         1 RES1   0.0000
   127 H75      -2.1427    2.4476    3.6807   H         1 RES1   0.0000
   128 H76      -4.1340    4.4529    3.9150   H         1 RES1   0.0000
   129 H77      -3.5105    4.2743    5.5360   H         1 RES1   0.0000
   130 H78      -5.5227    2.9311    4.8565   H         1 RES1   0.0000
   131 H79      -4.4936    1.9560    3.8225   H         1 RES1   0.0000
   132 H80      -5.1821    1.0940    6.1530   H         1 RES1   0.0000
   133 H81      -4.0038    2.1930    6.8178   H         1 RES1   0.0000
   134 H82      -2.2737    0.7754    6.3047   H         1 RES1   0.0000
   135 H83      -2.8649    0.5823    4.6492   H         1 RES1   0.0000
   136 H84      -4.4840   -1.1291    5.4105   H         1 RES1   0.0000
   137 H85      -3.8987   -0.9534    7.0558   H         1 RES1   0.0000
   138 H86      -2.0220   -2.2265    6.6718   H         1 RES1   0.0000
   139 H87      -1.6834   -1.4156    5.1641   H         1 RES1   0.0000
   140 H88      -3.8379   -2.8826    4.3686   H         1 RES1   0.0000
   141 H89      -3.2595   -3.9104    5.6752   H         1 RES1   0.0000
   142 H90      -1.8242   -3.1520    3.0915   H         1 RES1   0.0000
   143 H91      -2.2918   -4.7469    3.6651   H         1 RES1   0.0000
   144 H92      -0.9689   -3.8963    4.4581   H         1 RES1   0.0000
   145 C47       7.4102    3.2585    4.4373   C.3       1 RES1   0.0000
   146 C48       7.8805    1.8255    4.2201   C.3       1 RES1   0.0000
   147 C49       7.6249    1.3492    2.7919   C.3       1 RES1   0.0000
   148 C50       7.8507   -0.1539    2.6468   C.3       1 RES1   0.0000
   149 C51       7.8221   -0.6085    1.1868   C.3       1 RES1   0.0000
   150 C52       7.6599   -2.1227    1.0308   C.3       1 RES1   0.0000
   151 C53       6.3440   -2.6863    1.5763   C.3       1 RES1   0.0000
   152 C54       5.1100   -2.0669    0.9243   C.3       1 RES1   0.0000
   153 C55       3.7886   -2.4705    1.5898   C.3       1 RES1   0.0000
   154 C56       3.5518   -1.6536    2.8619   C.3       1 RES1   0.0000
   155 N3        2.1570   -1.5941    3.3182   N.am      1 RES1   0.0000
   156 C57       1.9771   -1.8645    4.7444   C.3       1 RES1   0.0000
   157 C58       1.8658   -3.3396    5.1591   C.3       1 RES1   0.0000
   158 C59       2.5732   -4.3322    4.2493   C.3       1 RES1   0.0000
   159 C60       2.3063   -5.7585    4.7234   C.3       1 RES1   0.0000
   160 C61       2.8638   -6.8149    3.7706   C.3       1 RES1   0.0000
   161 C62       4.3761   -6.6834    3.5771   C.3       1 RES1   0.0000
   162 C63       5.0757   -7.9702    3.1351   C.3       1 RES1   0.0000
   163 C64       4.9919   -8.2895    1.6426   C.3       1 RES1   0.0000
   164 C65       3.6345   -8.7971    1.1626   C.3       1 RES1   0.0000
   165 C66       3.7197   -9.3702   -0.2491   C.3       1 RES1   0.0000
   166 C67       1.2696   -0.9941    2.5331   C.2       1 RES1   0.0000
   167 O4        1.5707   -0.5373    1.4074   O.2       1 RES1   0.0000
   168 C68      -0.1345   -0.6987    3.0630   C.3       1 RES1   0.0000
   169 C69       0.0264    0.6423    3.7819   C.3       1 RES1   0.0000
   170 O5       -0.9847   -0.5833    1.9108   O.3       1 RES1   0.0000
   171 C70      -2.4179   -0.4885    2.0787   C.3       1 RES1   0.0000
   172 C71      -2.8710    0.8929    1.6029   C.3       1 RES1   0.0000
   173 C72      -3.0157   -1.5131    1.0898   C.2       1 RES1   0.0000
   174 O6       -2.3237   -1.7663    0.0930   O.2       1 RES1   0.0000
   175 N4       -4.2100   -2.0544    1.3356   N.am      1 RES1   0.0000
   176 C73      -4.6281   -3.1494    0.4404   C.3       1 RES1   0.0000
   177 C74      -5.6737   -4.1126    1.0106   C.3       1 RES1   0.0000
   178 C75      -5.0835   -5.2145    1.9059   C.3       1 RES1   0.0000
   179 C76      -6.0203   -5.7356    3.0138   C.3       1 RES1   0.0000
   180 C77      -5.5415   -5.2965    4.3945   C.3       1 RES1   0.0000
   181 C78      -6.3225   -5.9028    5.5575   C.3       1 RES1   0.0000
   182 C79      -5.7863   -5.4362    6.9155   C.3       1 RES1   0.0000
   183 C80      -6.0932   -3.9734    7.2545   C.3       1 RES1   0.0000
   184 C81      -5.2649   -3.4878    8.4482   C.3       1 RES1   0.0000
   185 C82      -5.7644   -2.1549    9.0001   C.3       1 RES1   0.0000
   186 C83      -5.2696   -1.3545    2.0666   C.3       1 RES1   0.0000
   187 C84      -6.1887   -0.6386    1.0564   C.3       1 RES1   0.0000
   188 C85      -7.4859   -0.0375    1.6104   C.3       1 RES1   0.0000
   189 C86      -7.3019    1.2738    2.3791   C.3       1 RES1   0.0000
   190 C87      -8.5904    2.1040    2.5337   C.3       1 RES1   0.0000
   191 C88      -9.3603    1.9458    3.8487   C.3       1 RES1   0.0000
   192 C89     -10.0889    0.6103    4.0162   C.3       1 RES1   0.0000
   193 C90      -9.2126   -0.4801    4.6281   C.3       1 RES1   0.0000
   194 C91      -9.8381   -1.8594    4.4510   C.3       1 RES1   0.0000
   195 C92      -8.9034   -2.9797    4.8851   C.3       1 RES1   0.0000
   196 H93       7.6531    3.5917    5.4434   H         1 RES1   0.0000
   197 H94       6.3306    3.3316    4.2984   H         1 RES1   0.0000
   198 H95       7.8951    3.9308    3.7324   H         1 RES1   0.0000
   199 H96       7.3645    1.1611    4.9184   H         1 RES1   0.0000
   200 H97       8.9483    1.7604    4.4312   H         1 RES1   0.0000
   201 H98       8.2823    1.8898    2.1093   H         1 RES1   0.0000
   202 H99       6.5924    1.5858    2.5102   H         1 RES1   0.0000
   203 H100      7.0788   -0.6731    3.2175   H         1 RES1   0.0000
   204 H101      8.8144   -0.4211    3.0817   H         1 RES1   0.0000
   205 H102      8.7599   -0.3135    0.7124   H         1 RES1   0.0000
   206 H103      7.0198   -0.0886    0.6539   H         1 RES1   0.0000
   207 H104      8.4814   -2.6144    1.5546   H         1 RES1   0.0000
   208 H105      7.7458   -2.3754   -0.0291   H         1 RES1   0.0000
   209 H106      6.3095   -2.5380    2.6538   H         1 RES1   0.0000
   210 H107      6.3360   -3.7636    1.4017   H         1 RES1   0.0000
   211 H108      5.1040   -2.3601   -0.1279   H         1 RES1   0.0000
   212 H109      5.1926   -0.9813    0.9481   H         1 RES1   0.0000
   213 H110      3.8079   -3.5338    1.8268   H         1 RES1   0.0000
   214 H111      2.9591   -2.2870    0.9059   H         1 RES1   0.0000
   215 H112      3.8812   -0.6229    2.6888   H         1 RES1   0.0000
   216 H113      4.1399   -2.0704    3.6777   H         1 RES1   0.0000
   217 H114      1.1055   -1.3426    5.1353   H         1 RES1   0.0000
   218 H115      2.8552   -1.4238    5.2221   H         1 RES1   0.0000
   219 H116      0.8138   -3.6219    5.2211   H         1 RES1   0.0000
   220 H117      2.2740   -3.4185    6.1688   H         1 RES1   0.0000
   221 H118      3.6475   -4.1504    4.2607   H         1 RES1   0.0000
   222 H119      2.1966   -4.2098    3.2315   H         1 RES1   0.0000
   223 H120      1.2270   -5.9077    4.8257   H         1 RES1   0.0000
   224 H121      2.7510   -5.8929    5.7112   H         1 RES1   0.0000
   225 H122      2.3399   -6.7477    2.8134   H         1 RES1   0.0000
   226 H123      2.6451   -7.7970    4.1930   H         1 RES1   0.0000
   227 H124      4.8040   -6.3861    4.5375   H         1 RES1   0.0000
   228 H125      4.5988   -5.8897    2.8568   H         1 RES1   0.0000
   229 H126      4.6779   -8.8086    3.7079   H         1 RES1   0.0000
   230 H127      6.1331   -7.8739    3.3921   H         1 RES1   0.0000
   231 H128      5.7310   -9.0642    1.4305   H         1 RES1   0.0000
   232 H129      5.2773   -7.4031    1.0689   H         1 RES1   0.0000
   233 H130      2.8981   -7.9910    1.1733   H         1 RES1   0.0000
   234 H131      3.2820   -9.5755    1.8407   H         1 RES1   0.0000
   235 H132      4.1028   -8.6231   -0.9459   H         1 RES1   0.0000
   236 H133      2.7389   -9.6996   -0.5922   H         1 RES1   0.0000
   237 H134      4.3915  -10.2267   -0.2688   H         1 RES1   0.0000
   238 H135     -0.4898   -1.5083    3.7060   H         1 RES1   0.0000
   239 H136      0.2965    1.3878    3.0331   H         1 RES1   0.0000
   240 H137      0.8246    0.6001    4.5164   H         1 RES1   0.0000
   241 H138     -0.8829    0.9473    4.2876   H         1 RES1   0.0000
   242 H139     -2.6864   -0.7237    3.1127   H         1 RES1   0.0000
   243 H140     -2.8611    0.9318    0.5060   H         1 RES1   0.0000
   244 H141     -2.1908    1.6593    1.9663   H         1 RES1   0.0000
   245 H142     -3.8740    1.1431    1.9243   H         1 RES1   0.0000
   246 H143     -3.7238   -3.7102    0.1886   H         1 RES1   0.0000
   247 H144     -5.0093   -2.7097   -0.4850   H         1 RES1   0.0000
   248 H145     -6.1605   -4.5770    0.1513   H         1 RES1   0.0000
   249 H146     -6.4599   -3.5707    1.5332   H         1 RES1   0.0000
   250 H147     -4.1696   -4.8426    2.3691   H         1 RES1   0.0000
   251 H148     -4.7847   -6.0472    1.2707   H         1 RES1   0.0000
   252 H149     -6.0522   -6.8245    2.9865   H         1 RES1   0.0000
   253 H150     -7.0414   -5.3846    2.8606   H         1 RES1   0.0000
   254 H151     -5.5950   -4.2089    4.4546   H         1 RES1   0.0000
   255 H152     -4.4985   -5.5968    4.5023   H         1 RES1   0.0000
   256 H153     -6.2333   -6.9900    5.5067   H         1 RES1   0.0000
   257 H154     -7.3780   -5.6417    5.4792   H         1 RES1   0.0000
   258 H155     -4.7001   -5.5920    6.9493   H         1 RES1   0.0000
   259 H156     -6.2286   -6.0588    7.6992   H         1 RES1   0.0000
   260 H157     -5.8878   -3.3249    6.3988   H         1 RES1   0.0000
   261 H158     -7.1545   -3.8720    7.4915   H         1 RES1   0.0000
   262 H159     -4.2194   -3.3938    8.1392   H         1 RES1   0.0000
   263 H160     -5.3036   -4.2342    9.2442   H         1 RES1   0.0000
   264 H161     -5.9102   -1.4290    8.2000   H         1 RES1   0.0000
   265 H162     -5.0552   -1.7444    9.7172   H         1 RES1   0.0000
   266 H163     -6.7160   -2.2867    9.5101   H         1 RES1   0.0000
   267 H164     -4.8381   -0.6249    2.7505   H         1 RES1   0.0000
   268 H165     -5.8212   -2.0772    2.6676   H         1 RES1   0.0000
   269 H166     -6.4792   -1.3627    0.2900   H         1 RES1   0.0000
   270 H167     -5.6155    0.1534    0.5706   H         1 RES1   0.0000
   271 H168     -7.9803   -0.7893    2.2215   H         1 RES1   0.0000
   272 H169     -8.1300    0.1639    0.7526   H         1 RES1   0.0000
   273 H170     -6.5812    1.8850    1.8241   H         1 RES1   0.0000
   274 H171     -6.8770    1.0852    3.3655   H         1 RES1   0.0000
   275 H172     -9.2707    1.8885    1.7065   H         1 RES1   0.0000
   276 H173     -8.3199    3.1600    2.4487   H         1 RES1   0.0000
   277 H174    -10.0984    2.7509    3.8818   H         1 RES1   0.0000
   278 H175     -8.6845    2.0958    4.6948   H         1 RES1   0.0000
   279 H176    -10.4679    0.2783    3.0469   H         1 RES1   0.0000
   280 H177    -10.9571    0.7517    4.6622   H         1 RES1   0.0000
   281 H178     -9.0698   -0.2671    5.6890   H         1 RES1   0.0000
   282 H179     -8.2263   -0.4715    4.1656   H         1 RES1   0.0000
   283 H180    -10.1057   -1.9972    3.4002   H         1 RES1   0.0000
   284 H181    -10.7598   -1.9055    5.0312   H         1 RES1   0.0000
   285 H182     -7.9934   -2.9872    4.2825   H         1 RES1   0.0000
   286 H183     -9.3925   -3.9437    4.7718   H         1 RES1   0.0000
   287 H184     -8.6187   -2.8541    5.9265   H         1 RES1   0.0000
   288 C93      -0.7307    7.9274   -3.9113   C.3       1 RES1   0.0000
   289 C94      -2.1615    7.4143   -3.8040   C.3       1 RES1   0.0000
   290 C95      -2.4537    6.8024   -2.4344   C.3       1 RES1   0.0000
   291 C96      -3.8380    6.1597   -2.3901   C.3       1 RES1   0.0000
   292 C97      -4.1726    5.5590   -1.0256   C.3       1 RES1   0.0000
   293 C98      -5.4895    4.7777   -1.0369   C.3       1 RES1   0.0000
   294 C99      -5.4408    3.4450   -1.7869   C.3       1 RES1   0.0000
   295 C100     -4.5541    2.4038   -1.1093   C.3       1 RES1   0.0000
   296 C101     -4.6353    1.0451   -1.8076   C.3       1 RES1   0.0000
   297 C102     -3.8598    1.0092   -3.1336   C.3       1 RES1   0.0000
   298 N5       -3.0654   -0.2034   -3.3677   N.am      1 RES1   0.0000
   299 C103     -3.6314   -1.2469   -4.2175   C.3       1 RES1   0.0000
   300 C104     -4.4034   -2.3232   -3.4373   C.3       1 RES1   0.0000
   301 C105     -5.8531   -1.9609   -3.1100   C.3       1 RES1   0.0000
   302 C106     -6.7355   -1.7816   -4.3454   C.3       1 RES1   0.0000
   303 C107     -8.2242   -1.6850   -4.0025   C.3       1 RES1   0.0000
   304 C108     -8.6258   -0.3528   -3.3690   C.3       1 RES1   0.0000
   305 C109    -10.1268   -0.2801   -3.0456   C.3       1 RES1   0.0000
   306 C110    -10.4558   -0.4966   -1.5677   C.3       1 RES1   0.0000
   307 C111    -10.0832   -1.8797   -1.0369   C.3       1 RES1   0.0000
   308 C112    -10.5825   -2.0685    0.3932   C.3       1 RES1   0.0000
   309 C113     -1.8990   -0.2992   -2.7408   C.2       1 RES1   0.0000
   310 O7       -1.5938    0.4882   -1.8191   O.2       1 RES1   0.0000
   311 C114     -0.8390   -1.3182   -3.2186   C.3       1 RES1   0.0000
   312 C115     -0.3567   -0.9946   -4.6411   C.3       1 RES1   0.0000
   313 O8        0.2618   -1.1767   -2.3142   O.3       1 RES1   0.0000
   314 C116      1.2158   -2.2469   -2.2800   C.3       1 RES1   0.0000
   315 C117      2.6036   -1.6091   -2.2165   C.3       1 RES1   0.0000
   316 C118      0.9532   -3.0196   -0.9771   C.2       1 RES1   0.0000
   317 O9        0.3529   -2.3906   -0.0845   O.2       1 RES1   0.0000
   318 N6        1.3607   -4.2786   -0.8354   N.am      1 RES1   0.0000
   319 C119      0.8726   -5.0303    0.3188   C.3       1 RES1   0.0000
   320 C120     -0.0291   -6.2041   -0.0743   C.3       1 RES1   0.0000
   321 C121     -1.3793   -5.7865   -0.6866   C.3       1 RES1   0.0000
   322 C122     -1.5864   -6.2484   -2.1343   C.3       1 RES1   0.0000
   323 C123     -0.8433   -5.3980   -3.1596   C.3       1 RES1   0.0000
   324 C124     -1.0669   -5.8770   -4.5947   C.3       1 RES1   0.0000
   325 C125     -0.4836   -4.9332   -5.6545   C.3       1 RES1   0.0000
   326 C126      1.0429   -4.8419   -5.6420   C.3       1 RES1   0.0000
   327 C127      1.5838   -3.8567   -6.6763   C.3       1 RES1   0.0000
   328 C128      3.0951   -3.7004   -6.5698   C.3       1 RES1   0.0000
   329 C129      2.3710   -4.9477   -1.6478   C.3       1 RES1   0.0000
   330 C130      3.7206   -5.0179   -0.9215   C.3       1 RES1   0.0000
   331 C131      4.8484   -5.5652   -1.8001   C.3       1 RES1   0.0000
   332 C132      5.4062   -4.5523   -2.8003   C.3       1 RES1   0.0000
   333 C133      6.6755   -5.0500   -3.5077   C.3       1 RES1   0.0000
   334 C134      6.4726   -5.8225   -4.8151   C.3       1 RES1   0.0000
   335 C135      5.8254   -7.2054   -4.6699   C.3       1 RES1   0.0000
   336 C136      4.3089   -7.2004   -4.8705   C.3       1 RES1   0.0000
   337 C137      3.6854   -8.5214   -4.4271   C.3       1 RES1   0.0000
   338 C138      2.1647   -8.4995   -4.5205   C.3       1 RES1   0.0000
   339 H185     -0.5584    8.3709   -4.8895   H         1 RES1   0.0000
   340 H186     -0.0225    7.1103   -3.7712   H         1 RES1   0.0000
   341 H187     -0.5370    8.6864   -3.1561   H         1 RES1   0.0000
   342 H188     -2.3346    6.6640   -4.5793   H         1 RES1   0.0000
   343 H189     -2.8542    8.2374   -3.9837   H         1 RES1   0.0000
   344 H190     -2.3862    7.5814   -1.6719   H         1 RES1   0.0000
   345 H191     -1.6950    6.0460   -2.2039   H         1 RES1   0.0000
   346 H192     -3.8865    5.3846   -3.1577   H         1 RES1   0.0000
   347 H193     -4.5886    6.9115   -2.6392   H         1 RES1   0.0000
   348 H194     -4.2601    6.3707   -0.3004   H         1 RES1   0.0000
   349 H195     -3.3536    4.9130   -0.6956   H         1 RES1   0.0000
   350 H196     -6.2561    5.4019   -1.4986   H         1 RES1   0.0000
   351 H197     -5.8048    4.5891   -0.0067   H         1 RES1   0.0000
   352 H198     -5.1127    3.6064   -2.8132   H         1 RES1   0.0000
   353 H199     -6.4565    3.0482   -1.8351   H         1 RES1   0.0000
   354 H200     -4.8963    2.2991   -0.0773   H         1 RES1   0.0000
   355 H201     -3.5175    2.7431   -1.0848   H         1 RES1   0.0000
   356 H202     -5.6920    0.8383   -1.9862   H         1 RES1   0.0000
   357 H203     -4.2343    0.2608   -1.1612   H         1 RES1   0.0000
   358 H204     -3.1523    1.8443   -3.1484   H         1 RES1   0.0000
   359 H205     -4.5388    1.1120   -3.9787   H         1 RES1   0.0000
   360 H206     -2.8361   -1.7404   -4.7712   H         1 RES1   0.0000
   361 H207     -4.2932   -0.7730   -4.9413   H         1 RES1   0.0000
   362 H208     -3.8597   -2.5447   -2.5130   H         1 RES1   0.0000
   363 H209     -4.4050   -3.2286   -4.0488   H         1 RES1   0.0000
   364 H210     -5.8824   -1.0604   -2.5041   H         1 RES1   0.0000
   365 H211     -6.2644   -2.7771   -2.5139   H         1 RES1   0.0000
   366 H212     -6.5871   -2.6386   -5.0044   H         1 RES1   0.0000
   367 H213     -6.4497   -0.8847   -4.9004   H         1 RES1   0.0000
   368 H214     -8.4962   -2.5082   -3.3419   H         1 RES1   0.0000
   369 H215     -8.7954   -1.8063   -4.9237   H         1 RES1   0.0000
   370 H216     -8.3703    0.4494   -4.0658   H         1 RES1   0.0000
   371 H217     -8.0565   -0.1838   -2.4515   H         1 RES1   0.0000
   372 H218    -10.6667   -1.0184   -3.6406   H         1 RES1   0.0000
   373 H219    -10.5110    0.7026   -3.3265   H         1 RES1   0.0000
   374 H220    -11.5304   -0.3545   -1.4310   H         1 RES1   0.0000
   375 H221     -9.9483    0.2684   -0.9706   H         1 RES1   0.0000
   376 H222     -8.9964   -2.0109   -1.0617   H         1 RES1   0.0000
   377 H223    -10.5325   -2.6423   -1.6777   H         1 RES1   0.0000
   378 H224    -10.1914   -1.2838    1.0416   H         1 RES1   0.0000
   379 H225    -10.2726   -3.0358    0.7879   H         1 RES1   0.0000
   380 H226    -11.6700   -2.0187    0.4212   H         1 RES1   0.0000
   381 H227     -1.2443   -2.3371   -3.1492   H         1 RES1   0.0000
   382 H228     -0.2387    0.0769   -4.7699   H         1 RES1   0.0000
   383 H229     -1.0343   -1.3517   -5.4087   H         1 RES1   0.0000
   384 H230      0.6077   -1.4639   -4.8216   H         1 RES1   0.0000
   385 H231      1.1033   -2.8922   -3.1565   H         1 RES1   0.0000
   386 H232      2.6476   -0.9455   -1.3386   H         1 RES1   0.0000
   387 H233      2.8011   -1.0266   -3.1186   H         1 RES1   0.0000
   388 H234      3.3771   -2.3668   -2.1241   H         1 RES1   0.0000
   389 H235      0.3101   -4.3297    0.9375   H         1 RES1   0.0000
   390 H236      1.7258   -5.3952    0.8945   H         1 RES1   0.0000
   391 H237     -0.2012   -6.7767    0.8386   H         1 RES1   0.0000
   392 H238      0.4982   -6.8680   -0.7584   H         1 RES1   0.0000
   393 H239     -1.4868   -4.6990   -0.6326   H         1 RES1   0.0000
   394 H240     -2.1843   -6.2146   -0.0879   H         1 RES1   0.0000
   395 H241     -2.6526   -6.2153   -2.3658   H         1 RES1   0.0000
   396 H242     -1.2715   -7.2873   -2.2334   H         1 RES1   0.0000
   397 H243      0.2221   -5.4196   -2.9415   H         1 RES1   0.0000
   398 H244     -1.1866   -4.3621   -3.0653   H         1 RES1   0.0000
   399 H245     -2.1416   -5.9773   -4.7706   H         1 RES1   0.0000
   400 H246     -0.6190   -6.8642   -4.7182   H         1 RES1   0.0000
   401 H247     -0.9093   -3.9327   -5.5166   H         1 RES1   0.0000
   402 H248     -0.7987   -5.2882   -6.6380   H         1 RES1   0.0000
   403 H249      1.4635   -5.8284   -5.8376   H         1 RES1   0.0000
   404 H250      1.3860   -4.5350   -4.6497   H         1 RES1   0.0000
   405 H251      1.1059   -2.8816   -6.5476   H         1 RES1   0.0000
   406 H252      1.3284   -4.2094   -7.6750   H         1 RES1   0.0000
   407 H253      3.3877   -3.3693   -5.5733   H         1 RES1   0.0000
   408 H254      3.4582   -2.9726   -7.2890   H         1 RES1   0.0000
   409 H255      3.5885   -4.6467   -6.7695   H         1 RES1   0.0000
   410 H256      2.5022   -4.4285   -2.5950   H         1 RES1   0.0000
   411 H257      2.0413   -5.9692   -1.8524   H         1 RES1   0.0000
   412 H258      3.6204   -5.6702   -0.0538   H         1 RES1   0.0000
   413 H259      3.9893   -4.0245   -0.5643   H         1 RES1   0.0000
   414 H260      4.5012   -6.4555   -2.3186   H         1 RES1   0.0000
   415 H261      5.6649   -5.8663   -1.1409   H         1 RES1   0.0000
   416 H262      5.6591   -3.6371   -2.2520   H         1 RES1   0.0000
   417 H263      4.6555   -4.2912   -3.5513   H         1 RES1   0.0000
   418 H264      7.2431   -5.6732   -2.8139   H         1 RES1   0.0000
   419 H265      7.2977   -4.1829   -3.7433   H         1 RES1   0.0000
   420 H266      7.4650   -5.9483   -5.2531   H         1 RES1   0.0000
   421 H267      5.8879   -5.2195   -5.5133   H         1 RES1   0.0000
   422 H268      6.0718   -7.6166   -3.6880   H         1 RES1   0.0000
   423 H269      6.2559   -7.8794   -5.4125   H         1 RES1   0.0000
   424 H270      4.0928   -7.0304   -5.9272   H         1 RES1   0.0000
   425 H271      3.8526   -6.3798   -4.3129   H         1 RES1   0.0000
   426 H272      3.9824   -8.7328   -3.3960   H         1 RES1   0.0000
   427 H273      4.0770   -9.3291   -5.0464   H         1 RES1   0.0000
   428 H274      1.7519   -7.6841   -3.9236   H         1 RES1   0.0000
   429 H275      1.7494   -9.4362   -4.1575   H         1 RES1   0.0000
   430 H276      1.8484   -8.3651   -5.5531   H         1 RES1   0.0000
@<TRIPOS>BOND
     1     1    24    1
     2     1    27    1
     3     1    31    1
     4     1   167    1
     5     1   170    1
     6     1   174    1
     7     1   310    1
     8     1   313    1
     9     1   317    1
    10     2     3    1
    11     2    53    1
    12     2    54    1
    13     2    55    1
    14     3     4    1
    15     3    56    1
    16     3    57    1
    17     4     5    1
    18     4    58    1
    19     4    59    1
    20     5     6    1
    21     5    60    1
    22     5    61    1
    23     6     7    1
    24     6    62    1
    25     6    63    1
    26     7     8    1
    27     7    64    1
    28     7    65    1
    29     8     9    1
    30     8    66    1
    31     8    67    1
    32     9    10    1
    33     9    68    1
    34     9    69    1
    35    10    11    1
    36    10    70    1
    37    10    71    1
    38    11    12    1
    39    11    72    1
    40    11    73    1
    41    12    13    1
    42    12    23    1
    43    13    14    1
    44    13    74    1
    45    13    75    1
    46    14    15    1
    47    14    76    1
    48    14    77    1
    49    15    16    1
    50    15    78    1
    51    15    79    1
    52    16    17    1
    53    16    80    1
    54    16    81    1
    55    17    18    1
    56    17    82    1
    57    17    83    1
    58    18    19    1
    59    18    84    1
    60    18    85    1
    61    19    20    1
    62    19    86    1
    63    19    87    1
    64    20    21    1
    65    20    88    1
    66    20    89    1
    67    21    22    1
    68    21    90    1
    69    21    91    1
    70    22    92    1
    71    22    93    1
    72    22    94    1
    73    23    24    2
    74    23    25    1
    75    25    26    1
    76    25    27    1
    77    25    95    1
    78    26    96    1
    79    26    97    1
    80    26    98    1
    81    27    28    1
    82    28    29    1
    83    28    30    1
    84    28    99    1
    85    29   100    1
    86    29   101    1
    87    29   102    1
    88    30    31    2
    89    30    32    1
    90    32    33    1
    91    32    43    1
    92    33    34    1
    93    33   103    1
    94    33   104    1
    95    34    35    1
    96    34   105    1
    97    34   106    1
    98    35    36    1
    99    35   107    1
   100    35   108    1
   101    36    37    1
   102    36   109    1
   103    36   110    1
   104    37    38    1
   105    37   111    1
   106    37   112    1
   107    38    39    1
   108    38   113    1
   109    38   114    1
   110    39    40    1
   111    39   115    1
   112    39   116    1
   113    40    41    1
   114    40   117    1
   115    40   118    1
   116    41    42    1
   117    41   119    1
   118    41   120    1
   119    42   121    1
   120    42   122    1
   121    42   123    1
   122    43    44    1
   123    43   124    1
   124    43   125    1
   125    44    45    1
   126    44   126    1
   127    44   127    1
   128    45    46    1
   129    45   128    1
   130    45   129    1
   131    46    47    1
   132    46   130    1
   133    46   131    1
   134    47    48    1
   135    47   132    1
   136    47   133    1
   137    48    49    1
   138    48   134    1
   139    48   135    1
   140    49    50    1
   141    49   136    1
   142    49   137    1
   143    50    51    1
   144    50   138    1
   145    50   139    1
   146    51    52    1
   147    51   140    1
   148    51   141    1
   149    52   142    1
   150    52   143    1
   151    52   144    1
   152   145   146    1
   153   145   196    1
   154   145   197    1
   155   145   198    1
   156   146   147    1
   157   146   199    1
   158   146   200    1
   159   147   148    1
   160   147   201    1
   161   147   202    1
   162   148   149    1
   163   148   203    1
   164   148   204    1
   165   149   150    1
   166   149   205    1
   167   149   206    1
   168   150   151    1
   169   150   207    1
   170   150   208    1
   171   151   152    1
   172   151   209    1
   173   151   210    1
   174   152   153    1
   175   152   211    1
   176   152   212    1
   177   153   154    1
   178   153   213    1
   179   153   214    1
   180   154   155    1
   181   154   215    1
   182   154   216    1
   183   155   156    1
   184   155   166    1
   185   156   157    1
   186   156   217    1
   187   156   218    1
   188   157   158    1
   189   157   219    1
   190   157   220    1
   191   158   159    1
   192   158   221    1
   193   158   222    1
   194   159   160    1
   195   159   223    1
   196   159   224    1
   197   160   161    1
   198   160   225    1
   199   160   226    1
   200   161   162    1
   201   161   227    1
   202   161   228    1
   203   162   163    1
   204   162   229    1
   205   162   230    1
   206   163   164    1
   207   163   231    1
   208   163   232    1
   209   164   165    1
   210   164   233    1
   211   164   234    1
   212   165   235    1
   213   165   236    1
   214   165   237    1
   215   166   167    2
   216   166   168    1
   217   168   169    1
   218   168   170    1
   219   168   238    1
   220   169   239    1
   221   169   240    1
   222   169   241    1
   223   170   171    1
   224   171   172    1
   225   171   173    1
   226   171   242    1
   227   172   243    1
   228   172   244    1
   229   172   245    1
   230   173   174    2
   231   173   175    1
   232   175   176    1
   233   175   186    1
   234   176   177    1
   235   176   246    1
   236   176   247    1
   237   177   178    1
   238   177   248    1
   239   177   249    1
   240   178   179    1
   241   178   250    1
   242   178   251    1
   243   179   180    1
   244   179   252    1
   245   179   253    1
   246   180   181    1
   247   180   254    1
   248   180   255    1
   249   181   182    1
   250   181   256    1
   251   181   257    1
   252   182   183    1
   253   182   258    1
   254   182   259    1
   255   183   184    1
   256   183   260    1
   257   183   261    1
   258   184   185    1
   259   184   262    1
   260   184   263    1
   261   185   264    1
   262   185   265    1
   263   185   266    1
   264   186   187    1
   265   186   267    1
   266   186   268    1
   267   187   188    1
   268   187   269    1
   269   187   270    1
   270   188   189    1
   271   188   271    1
   272   188   272    1
   273   189   190    1
   274   189   273    1
   275   189   274    1
   276   190   191    1
   277   190   275    1
   278   190   276    1
   279   191   192    1
   280   191   277    1
   281   191   278    1
   282   192   193    1
   283   192   279    1
   284   192   280    1
   285   193   194    1
   286   193   281    1
   287   193   282    1
   288   194   195    1
   289   194   283    1
   290   194   284    1
   291   195   285    1
   292   195   286    1
   293   195   287    1
   294   288   289    1
   295   288   339    1
   296   288   340    1
   297   288   341    1
   298   289   290    1
   299   289   342    1
   300   289   343    1
   301   290   291    1
   302   290   344    1
   303   290   345    1
   304   291   292    1
   305   291   346    1
   306   291   347    1
   307   292   293    1
   308   292   348    1
   309   292   349    1
   310   293   294    1
   311   293   350    1
   312   293   351    1
   313   294   295    1
   314   294   352    1
   315   294   353    1
   316   295   296    1
   317   295   354    1
   318   295   355    1
   319   296   297    1
   320   296   356    1
   321   296   357    1
   322   297   298    1
   323   297   358    1
   324   297   359    1
   325   298   299    1
   326   298   309    1
   327   299   300    1
   328   299   360    1
   329   299   361    1
   330   300   301    1
   331   300   362    1
   332   300   363    1
   333   301   302    1
   334   301   364    1
   335   301   365    1
   336   302   303    1
   337   302   366    1
   338   302   367    1
   339   303   304    1
   340   303   368    1
   341   303   369    1
   342   304   305    1
   343   304   370    1
   344   304   371    1
   345   305   306    1
   346   305   372    1
   347   305   373    1
   348   306   307    1
   349   306   374    1
   350   306   375    1
   351   307   308    1
   352   307   376    1
   353   307   377    1
   354   308   378    1
   355   308   379    1
   356   308   380    1
   357   309   310    2
   358   309   311    1
   359   311   312    1
   360   311   313    1
   361   311   381    1
   362   312   382    1
   363   312   383    1
   364   312   384    1
   365   313   314    1
   366   314   315    1
   367   314   316    1
   368   314   385    1
   369   315   386    1
   370   315   387    1
   371   315   388    1
   372   316   317    2
   373   316   318    1
   374   318   319    1
   375   318   329    1
   376   319   320    1
   377   319   389    1
   378   319   390    1
   379   320   321    1
   380   320   391    1
   381   320   392    1
   382   321   322    1
   383   321   393    1
   384   321   394    1
   385   322   323    1
   386   322   395    1
   387   322   396    1
   388   323   324    1
   389   323   397    1
   390   323   398    1
   391   324   325    1
   392   324   399    1
   393   324   400    1
   394   325   326    1
   395   325   401    1
   396   325   402    1
   397   326   327    1
   398   326   403    1
   399   326   404    1
   400   327   328    1
   401   327   405    1
   402   327   406    1
   403   328   407    1
   404   328   408    1
   405   328   409    1
   406   329   330    1
   407   329   410    1
   408   329   411    1
   409   330   331    1
   410   330   412    1
   411   330   413    1
   412   331   332    1
   413   331   414    1
   414   331   415    1
   415   332   333    1
   416   332   416    1
   417   332   417    1
   418   333   334    1
   419   333   418    1
   420   333   419    1
   421   334   335    1
   422   334   420    1
   423   334   421    1
   424   335   336    1
   425   335   422    1
   426   335   423    1
   427   336   337    1
   428   336   424    1
   429   336   425    1
   430   337   338    1
   431   337   426    1
   432   337   427    1
   433   338   428    1
   434   338   429    1
   435   338   430    1
@<TRIPOS>SUBSTRUCTURE
     1 RES1      430 GROUP             0 ****  ****    0  
