@<TRIPOS>MOLECULE
cn9_YICLED_0_nunpairedes_0_charge_3 Charge: 3 Unpaired_Electrons: 2 XTB_Unpaired_Electrons: 0 XTB_Charge: 3
   358   363     1     0     0
SMALL
NoCharges
****
Generated from Architector

@<TRIPOS>ATOM
     1 Pr1       0.1162   -0.4808   -0.1643   Pr        1 RES1   0.0000
     2 C1       -8.3336   -5.8887   -3.2888   C.3       1 RES1   0.0000
     3 C2       -8.5194   -4.5517   -2.5764   C.3       1 RES1   0.0000
     4 C3       -7.7672   -4.5238   -1.2457   C.3       1 RES1   0.0000
     5 C4       -7.8060   -3.1653   -0.5508   C.3       1 RES1   0.0000
     6 C5       -7.1875   -3.2363    0.8433   C.3       1 RES1   0.0000
     7 C6       -6.9484   -1.8599    1.4796   C.3       1 RES1   0.0000
     8 C7       -5.7375   -1.0920    0.9010   C.3       1 RES1   0.0000
     9 C8       -4.6665   -0.6562    1.9198   C.3       1 RES1   0.0000
    10 N1       -3.6310   -1.6666    2.1228   N.am      1 RES1   0.0000
    11 C9       -4.0925   -2.9057    2.7415   C.3       1 RES1   0.0000
    12 C10      -4.2695   -2.8538    4.2699   C.3       1 RES1   0.0000
    13 C11      -3.0990   -3.4060    5.0890   C.3       1 RES1   0.0000
    14 C12      -2.8468   -4.8898    4.8259   C.3       1 RES1   0.0000
    15 C13      -1.6960   -5.4659    5.6540   C.3       1 RES1   0.0000
    16 C14      -1.2559   -6.8433    5.1464   C.3       1 RES1   0.0000
    17 C15      -0.5907   -6.8056    3.7573   C.3       1 RES1   0.0000
    18 C16      -1.4273   -7.4818    2.6785   C.3       1 RES1   0.0000
    19 C17      -2.4021   -1.4363    1.6853   C.2       1 RES1   0.0000
    20 O1       -2.0261   -0.3918    1.1210   O.2       1 RES1   0.0000
    21 C18      -1.3193   -2.5112    1.9070   C.3       1 RES1   0.0000
    22 C19      -1.2569   -3.5356    0.7739   C.3       1 RES1   0.0000
    23 O2       -0.0747   -1.8123    1.8796   O.3       1 RES1   0.0000
    24 C20       0.3608   -1.3533    3.1672   C.3       1 RES1   0.0000
    25 C21       0.9563   -2.5895    3.8516   C.3       1 RES1   0.0000
    26 C22       1.2281   -0.0973    2.8879   C.2       1 RES1   0.0000
    27 O3        1.1689    0.3800    1.7307   O.2       1 RES1   0.0000
    28 N2        1.9197    0.4986    3.8519   N.am      1 RES1   0.0000
    29 C23       2.6807    1.7100    3.5368   C.3       1 RES1   0.0000
    30 C24       4.1569    1.6764    3.9774   C.3       1 RES1   0.0000
    31 C25       5.0848    1.5535    2.7704   C.3       1 RES1   0.0000
    32 C26       6.5749    1.8192    3.0197   C.3       1 RES1   0.0000
    33 C27       7.2903    0.8361    3.9501   C.3       1 RES1   0.0000
    34 C28       8.7405    0.5307    3.5736   C.3       1 RES1   0.0000
    35 C29       9.4652   -0.2140    4.7069   C.3       1 RES1   0.0000
    36 C30      10.0211   -1.5689    4.2905   C.3       1 RES1   0.0000
    37 C31       1.7400    0.2260    5.2688   C.3       1 RES1   0.0000
    38 C32       0.9480    1.3057    6.0098   C.3       1 RES1   0.0000
    39 C33       0.5988    0.8101    7.4169   C.3       1 RES1   0.0000
    40 C34      -0.4777   -0.2802    7.4751   C.3       1 RES1   0.0000
    41 C35      -1.9013    0.2763    7.3287   C.3       1 RES1   0.0000
    42 C36      -2.4472    0.1767    5.9002   C.3       1 RES1   0.0000
    43 C37      -3.3698    1.3262    5.5037   C.3       1 RES1   0.0000
    44 C38      -4.6742    1.3229    6.2893   C.3       1 RES1   0.0000
    45 H1       -8.9199   -5.9289   -4.2047   H         1 RES1   0.0000
    46 H2       -8.6511   -6.7148   -2.6568   H         1 RES1   0.0000
    47 H3       -7.2825   -6.0341   -3.5357   H         1 RES1   0.0000
    48 H4       -9.5818   -4.3793   -2.3962   H         1 RES1   0.0000
    49 H5       -8.1613   -3.7511   -3.2309   H         1 RES1   0.0000
    50 H6       -6.7263   -4.8111   -1.4206   H         1 RES1   0.0000
    51 H7       -8.2087   -5.2720   -0.5856   H         1 RES1   0.0000
    52 H8       -8.8397   -2.8326   -0.4798   H         1 RES1   0.0000
    53 H9       -7.2669   -2.4275   -1.1459   H         1 RES1   0.0000
    54 H10      -6.2524   -3.8008    0.7750   H         1 RES1   0.0000
    55 H11      -7.8556   -3.8040    1.4895   H         1 RES1   0.0000
    56 H12      -6.8316   -1.9744    2.5593   H         1 RES1   0.0000
    57 H13      -7.8477   -1.2622    1.3364   H         1 RES1   0.0000
    58 H14      -6.0879   -0.1797    0.4162   H         1 RES1   0.0000
    59 H15      -5.2474   -1.7006    0.1385   H         1 RES1   0.0000
    60 H16      -5.1293   -0.4475    2.8877   H         1 RES1   0.0000
    61 H17      -4.1564    0.2444    1.5657   H         1 RES1   0.0000
    62 H18      -3.4485   -3.7401    2.4803   H         1 RES1   0.0000
    63 H19      -5.0637   -3.1138    2.3013   H         1 RES1   0.0000
    64 H20      -5.1500   -3.4492    4.5129   H         1 RES1   0.0000
    65 H21      -4.4798   -1.8294    4.5774   H         1 RES1   0.0000
    66 H22      -3.3243   -3.2749    6.1494   H         1 RES1   0.0000
    67 H23      -2.1900   -2.8314    4.8916   H         1 RES1   0.0000
    68 H24      -2.6221   -5.0492    3.7697   H         1 RES1   0.0000
    69 H25      -3.7546   -5.4486    5.0586   H         1 RES1   0.0000
    70 H26      -2.0158   -5.5552    6.6934   H         1 RES1   0.0000
    71 H27      -0.8336   -4.7907    5.6405   H         1 RES1   0.0000
    72 H28      -2.1310   -7.4929    5.1144   H         1 RES1   0.0000
    73 H29      -0.5677   -7.2704    5.8781   H         1 RES1   0.0000
    74 H30       0.3765   -7.3062    3.8030   H         1 RES1   0.0000
    75 H31      -0.3991   -5.7670    3.4705   H         1 RES1   0.0000
    76 H32      -1.5312   -8.5377    2.9041   H         1 RES1   0.0000
    77 H33      -0.9529   -7.3852    1.7049   H         1 RES1   0.0000
    78 H34      -2.4208   -7.0456    2.6214   H         1 RES1   0.0000
    79 H35      -1.4530   -3.0008    2.8737   H         1 RES1   0.0000
    80 H36      -0.8043   -3.0621   -0.1159   H         1 RES1   0.0000
    81 H37      -2.2423   -3.9105    0.5137   H         1 RES1   0.0000
    82 H38      -0.6393   -4.3809    1.0714   H         1 RES1   0.0000
    83 H39      -0.5101   -0.9715    3.7311   H         1 RES1   0.0000
    84 H40       1.5236   -3.1554    3.1151   H         1 RES1   0.0000
    85 H41       0.1471   -3.2351    4.1870   H         1 RES1   0.0000
    86 H42       1.5764   -2.3776    4.7111   H         1 RES1   0.0000
    87 H43       2.1634    2.5472    4.0083   H         1 RES1   0.0000
    88 H44       2.6128    1.8349    2.4544   H         1 RES1   0.0000
    89 H45       4.3267    0.8497    4.6568   H         1 RES1   0.0000
    90 H46       4.3847    2.6072    4.4911   H         1 RES1   0.0000
    91 H47       4.7603    2.3194    2.0628   H         1 RES1   0.0000
    92 H48       4.9470    0.5660    2.3231   H         1 RES1   0.0000
    93 H49       6.6618    2.8263    3.4284   H         1 RES1   0.0000
    94 H50       7.0802    1.8168    2.0491   H         1 RES1   0.0000
    95 H51       6.7517   -0.1095    3.9657   H         1 RES1   0.0000
    96 H52       7.2951    1.2410    4.9632   H         1 RES1   0.0000
    97 H53       9.2628    1.4588    3.3535   H         1 RES1   0.0000
    98 H54       8.7747   -0.0748    2.6659   H         1 RES1   0.0000
    99 H55       8.7849   -0.3738    5.5441   H         1 RES1   0.0000
   100 H56      10.2785    0.4105    5.0701   H         1 RES1   0.0000
   101 H57       9.2142   -2.2702    4.0739   H         1 RES1   0.0000
   102 H58      10.6184   -1.9753    5.1031   H         1 RES1   0.0000
   103 H59      10.6579   -1.4737    3.4147   H         1 RES1   0.0000
   104 H60       2.7042    0.1218    5.7698   H         1 RES1   0.0000
   105 H61       1.2108   -0.7109    5.3901   H         1 RES1   0.0000
   106 H62       0.0346    1.5451    5.4657   H         1 RES1   0.0000
   107 H63       1.5371    2.2187    6.1162   H         1 RES1   0.0000
   108 H64       0.2453    1.6648    7.9961   H         1 RES1   0.0000
   109 H65       1.5109    0.4481    7.8965   H         1 RES1   0.0000
   110 H66      -0.3856   -0.7820    8.4386   H         1 RES1   0.0000
   111 H67      -0.3087   -1.0478    6.7127   H         1 RES1   0.0000
   112 H68      -1.9127    1.3160    7.6577   H         1 RES1   0.0000
   113 H69      -2.5660   -0.2775    7.9909   H         1 RES1   0.0000
   114 H70      -2.9990   -0.7576    5.8095   H         1 RES1   0.0000
   115 H71      -1.6213    0.1457    5.1839   H         1 RES1   0.0000
   116 H72      -3.5945    1.2432    4.4357   H         1 RES1   0.0000
   117 H73      -2.8573    2.2782    5.6589   H         1 RES1   0.0000
   118 H74      -5.1938    0.3724    6.1769   H         1 RES1   0.0000
   119 H75      -5.3290    2.1141    5.9324   H         1 RES1   0.0000
   120 H76      -4.4907    1.4824    7.3478   H         1 RES1   0.0000
   121 C39       5.0312    5.0042    1.2117   C.3       1 RES1   0.0000
   122 C40       3.6547    5.0800    1.8551   C.3       1 RES1   0.0000
   123 C41       2.6301    5.7564    0.9529   C.3       1 RES1   0.0000
   124 C42       1.2624    5.8469    1.6235   C.3       1 RES1   0.0000
   125 C43       0.2360    6.5061    0.7075   C.3       1 RES1   0.0000
   126 C44      -1.1359    6.7205    1.3601   C.3       1 RES1   0.0000
   127 C45      -1.9580    5.4549    1.6511   C.3       1 RES1   0.0000
   128 C46      -2.9288    5.0117    0.5491   C.3       1 RES1   0.0000
   129 N3       -2.2291    4.4383   -0.6020   N.am      1 RES1   0.0000
   130 C47      -1.8700    5.3794   -1.6540   C.3       1 RES1   0.0000
   131 C48      -2.9633    5.6147   -2.7112   C.3       1 RES1   0.0000
   132 C49      -2.8307    4.8128   -4.0021   C.3       1 RES1   0.0000
   133 C50      -1.4887    5.0357   -4.7000   C.3       1 RES1   0.0000
   134 C51      -1.5665    4.7740   -6.2047   C.3       1 RES1   0.0000
   135 C52      -0.1909    4.7048   -6.8774   C.3       1 RES1   0.0000
   136 C53       0.6225    3.4659   -6.4845   C.3       1 RES1   0.0000
   137 C54       1.7842    3.2213   -7.4433   C.3       1 RES1   0.0000
   138 C55      -1.8837    3.1469   -0.5450   C.2       1 RES1   0.0000
   139 O4       -2.3245    2.3303    0.2544   O.2       1 RES1   0.0000
   140 C56      -0.7178    2.6124   -1.4274   C.3       1 RES1   0.0000
   141 C57       0.4909    2.7043   -0.4870   C.3       1 RES1   0.0000
   142 O5       -0.9250    1.2128   -1.6982   O.3       1 RES1   0.0000
   143 C58      -2.0251    0.9081   -2.5817   C.3       1 RES1   0.0000
   144 C59      -1.5441    0.9633   -4.0394   C.3       1 RES1   0.0000
   145 C60      -2.4715   -0.5243   -2.2115   C.2       1 RES1   0.0000
   146 O6       -1.7365   -1.1795   -1.4432   O.2       1 RES1   0.0000
   147 N4       -3.5869   -1.0509   -2.7052   N.am      1 RES1   0.0000
   148 C61      -3.9461   -2.4057   -2.2847   C.3       1 RES1   0.0000
   149 C62      -3.7280   -3.4687   -3.3630   C.3       1 RES1   0.0000
   150 C63      -3.5942   -4.8405   -2.6983   C.3       1 RES1   0.0000
   151 C64      -3.7507   -6.0110   -3.6653   C.3       1 RES1   0.0000
   152 C65      -2.6598   -6.1569   -4.7314   C.3       1 RES1   0.0000
   153 C66      -1.4373   -7.0019   -4.3538   C.3       1 RES1   0.0000
   154 C67      -0.3408   -6.2677   -3.5675   C.3       1 RES1   0.0000
   155 C68      -0.2902   -6.6833   -2.1015   C.3       1 RES1   0.0000
   156 C69      -4.4830   -0.4504   -3.6819   C.3       1 RES1   0.0000
   157 C70      -5.9383   -0.3599   -3.2146   C.3       1 RES1   0.0000
   158 C71      -6.7330    0.5652   -4.1408   C.3       1 RES1   0.0000
   159 C72      -6.4164    2.0597   -4.0251   C.3       1 RES1   0.0000
   160 C73      -6.7968    2.6834   -2.6749   C.3       1 RES1   0.0000
   161 C74      -5.6518    2.7390   -1.6657   C.3       1 RES1   0.0000
   162 C75      -6.0895    3.2174   -0.2810   C.3       1 RES1   0.0000
   163 C76      -6.4980    4.6857   -0.2435   C.3       1 RES1   0.0000
   164 H77       5.7437    4.5296    1.8793   H         1 RES1   0.0000
   165 H78       5.3929    6.0021    0.9882   H         1 RES1   0.0000
   166 H79       5.0059    4.4363    0.2839   H         1 RES1   0.0000
   167 H80       3.7279    5.6334    2.7911   H         1 RES1   0.0000
   168 H81       3.3007    4.0757    2.0970   H         1 RES1   0.0000
   169 H82       2.5476    5.1975    0.0166   H         1 RES1   0.0000
   170 H83       2.9737    6.7588    0.6990   H         1 RES1   0.0000
   171 H84       1.3554    6.4340    2.5356   H         1 RES1   0.0000
   172 H85       0.9278    4.8450    1.9074   H         1 RES1   0.0000
   173 H86       0.1571    5.9146   -0.2065   H         1 RES1   0.0000
   174 H87       0.6187    7.4881    0.4244   H         1 RES1   0.0000
   175 H88      -1.7331    7.3900    0.7353   H         1 RES1   0.0000
   176 H89      -0.9654    7.2494    2.3010   H         1 RES1   0.0000
   177 H90      -2.5630    5.6477    2.5385   H         1 RES1   0.0000
   178 H91      -1.2984    4.6165    1.8777   H         1 RES1   0.0000
   179 H92      -3.5312    5.8570    0.2234   H         1 RES1   0.0000
   180 H93      -3.5898    4.2543    0.9702   H         1 RES1   0.0000
   181 H94      -0.9453    5.0764   -2.1393   H         1 RES1   0.0000
   182 H95      -1.6838    6.3320   -1.1644   H         1 RES1   0.0000
   183 H96      -2.9225    6.6702   -2.9791   H         1 RES1   0.0000
   184 H97      -3.9392    5.4300   -2.2636   H         1 RES1   0.0000
   185 H98      -3.6329    5.1393   -4.6627   H         1 RES1   0.0000
   186 H99      -2.9860    3.7490   -3.8164   H         1 RES1   0.0000
   187 H100     -0.7284    4.3791   -4.2651   H         1 RES1   0.0000
   188 H101     -1.1688    6.0672   -4.5427   H         1 RES1   0.0000
   189 H102     -2.1422    5.5771   -6.6688   H         1 RES1   0.0000
   190 H103     -2.1040    3.8383   -6.3874   H         1 RES1   0.0000
   191 H104      0.3864    5.6014   -6.6409   H         1 RES1   0.0000
   192 H105     -0.3449    4.6981   -7.9583   H         1 RES1   0.0000
   193 H106     -0.0405    2.5928   -6.4885   H         1 RES1   0.0000
   194 H107      1.0196    3.5894   -5.4705   H         1 RES1   0.0000
   195 H108      1.4116    3.0066   -8.4410   H         1 RES1   0.0000
   196 H109      2.3882    2.3748   -7.1211   H         1 RES1   0.0000
   197 H110      2.4274    4.0958   -7.4955   H         1 RES1   0.0000
   198 H111     -0.5526    3.1402   -2.3720   H         1 RES1   0.0000
   199 H112      0.2043    2.1992    0.4514   H         1 RES1   0.0000
   200 H113      0.7004    3.7457   -0.2441   H         1 RES1   0.0000
   201 H114      1.3999    2.2630   -0.9082   H         1 RES1   0.0000
   202 H115     -2.8506    1.6088   -2.3845   H         1 RES1   0.0000
   203 H116     -0.7317    0.2518   -4.1869   H         1 RES1   0.0000
   204 H117     -1.2045    1.9611   -4.3090   H         1 RES1   0.0000
   205 H118     -2.3353    0.6991   -4.7296   H         1 RES1   0.0000
   206 H119     -4.9933   -2.3945   -1.9776   H         1 RES1   0.0000
   207 H120     -3.3146   -2.6426   -1.4272   H         1 RES1   0.0000
   208 H121     -2.8210   -3.2124   -3.9055   H         1 RES1   0.0000
   209 H122     -4.5613   -3.4732   -4.0655   H         1 RES1   0.0000
   210 H123     -4.3878   -4.9257   -1.9502   H         1 RES1   0.0000
   211 H124     -2.6357   -4.8957   -2.1791   H         1 RES1   0.0000
   212 H125     -4.7098   -5.8864   -4.1685   H         1 RES1   0.0000
   213 H126     -3.8192   -6.9324   -3.0864   H         1 RES1   0.0000
   214 H127     -2.3181   -5.1720   -5.0567   H         1 RES1   0.0000
   215 H128     -3.1214   -6.6269   -5.6004   H         1 RES1   0.0000
   216 H129     -0.9989   -7.3672   -5.2815   H         1 RES1   0.0000
   217 H130     -1.7531   -7.8795   -3.7905   H         1 RES1   0.0000
   218 H131     -0.5071   -5.1897   -3.6256   H         1 RES1   0.0000
   219 H132      0.6349   -6.4719   -4.0179   H         1 RES1   0.0000
   220 H133     -1.2458   -6.4871   -1.6181   H         1 RES1   0.0000
   221 H134      0.4904   -6.1354   -1.5733   H         1 RES1   0.0000
   222 H135     -0.0752   -7.7462   -2.0154   H         1 RES1   0.0000
   223 H136     -4.4454   -1.0553   -4.5948   H         1 RES1   0.0000
   224 H137     -4.1344    0.5486   -3.9231   H         1 RES1   0.0000
   225 H138     -5.9771   -0.0041   -2.1856   H         1 RES1   0.0000
   226 H139     -6.3970   -1.3484   -3.2491   H         1 RES1   0.0000
   227 H140     -7.7934    0.4197   -3.9378   H         1 RES1   0.0000
   228 H141     -6.5602    0.2488   -5.1725   H         1 RES1   0.0000
   229 H142     -6.9857    2.5639   -4.8069   H         1 RES1   0.0000
   230 H143     -5.3606    2.2438   -4.2405   H         1 RES1   0.0000
   231 H144     -7.6244    2.1143   -2.2506   H         1 RES1   0.0000
   232 H145     -7.1470    3.7025   -2.8427   H         1 RES1   0.0000
   233 H146     -4.8776    3.4083   -2.0471   H         1 RES1   0.0000
   234 H147     -5.1958    1.7532   -1.5520   H         1 RES1   0.0000
   235 H148     -5.2555    3.0507    0.4052   H         1 RES1   0.0000
   236 H149     -6.9286    2.6111    0.0671   H         1 RES1   0.0000
   237 H150     -5.7744    5.3137   -0.7591   H         1 RES1   0.0000
   238 H151     -6.5742    5.0321    0.7838   H         1 RES1   0.0000
   239 H152     -7.4640    4.8330   -0.7152   H         1 RES1   0.0000
   240 C77      -4.3976    1.4697   -9.1510   C.3       1 RES1   0.0000
   241 C78      -3.9647    0.3737   -8.1814   C.3       1 RES1   0.0000
   242 C79      -2.4688    0.0729   -8.2934   C.3       1 RES1   0.0000
   243 C80      -2.0641   -1.1640   -7.4939   C.3       1 RES1   0.0000
   244 C81      -0.5804   -1.4852   -7.6670   C.3       1 RES1   0.0000
   245 C82      -0.1591   -2.7702   -6.9537   C.3       1 RES1   0.0000
   246 C83      -0.2903   -2.6630   -5.4212   C.3       1 RES1   0.0000
   247 C84       0.9672   -2.9727   -4.5901   C.3       1 RES1   0.0000
   248 N5        1.7883   -1.7973   -4.3172   N.am      1 RES1   0.0000
   249 C85       2.6334   -1.3902   -5.4292   C.3       1 RES1   0.0000
   250 C86       3.9180   -2.2081   -5.6064   C.3       1 RES1   0.0000
   251 C87       5.1049   -1.7451   -4.7620   C.3       1 RES1   0.0000
   252 C88       5.6032   -0.3372   -5.1091   C.3       1 RES1   0.0000
   253 C89       6.7798    0.0540   -4.2107   C.3       1 RES1   0.0000
   254 C90       7.3621    1.4564   -4.4327   C.3       1 RES1   0.0000
   255 C91       6.6721    2.5882   -3.6635   C.3       1 RES1   0.0000
   256 C92       5.3626    3.0938   -4.2580   C.3       1 RES1   0.0000
   257 C93       1.6500   -1.1747   -3.1575   C.2       1 RES1   0.0000
   258 O7        0.8170   -1.5233   -2.2908   O.2       1 RES1   0.0000
   259 C94       2.5515    0.0168   -2.8078   C.3       1 RES1   0.0000
   260 C95       1.9730    1.3283   -3.3405   C.3       1 RES1   0.0000
   261 O8        2.5950    0.0689   -1.3774   O.3       1 RES1   0.0000
   262 C96       3.8729   -0.2629   -0.8089   C.3       1 RES1   0.0000
   263 C97       4.5255    1.0632   -0.4207   C.3       1 RES1   0.0000
   264 C98       3.6447   -1.2599    0.3537   C.2       1 RES1   0.0000
   265 O9        2.4668   -1.5837    0.5997   O.2       1 RES1   0.0000
   266 N6        4.7053   -1.7599    1.0060   N.am      1 RES1   0.0000
   267 C99       4.4640   -2.6764    2.1314   C.3       1 RES1   0.0000
   268 C100      5.3105   -2.4851    3.4211   C.3       1 RES1   0.0000
   269 C101      4.4254   -2.1312    4.6333   C.3       1 RES1   0.0000
   270 C102      5.0207   -2.2833    6.0562   C.3       1 RES1   0.0000
   271 C103      5.8576   -1.1324    6.6579   C.3       1 RES1   0.0000
   272 C104      5.1061   -0.0476    7.4530   C.3       1 RES1   0.0000
   273 C105      6.0080    1.1520    7.7889   C.3       1 RES1   0.0000
   274 C106      5.2422    2.4614    7.9709   C.3       1 RES1   0.0000
   275 C107      6.0876   -1.5839    0.5351   C.3       1 RES1   0.0000
   276 C108      7.0550   -2.7459    0.8249   C.3       1 RES1   0.0000
   277 C109      8.1696   -2.8928   -0.2220   C.3       1 RES1   0.0000
   278 C110      7.7558   -3.3122   -1.6375   C.3       1 RES1   0.0000
   279 C111      6.9967   -4.6412   -1.7358   C.3       1 RES1   0.0000
   280 C112      5.4768   -4.5251   -1.6207   C.3       1 RES1   0.0000
   281 C113      4.7595   -5.8306   -1.9847   C.3       1 RES1   0.0000
   282 C114      4.4631   -5.9375   -3.4747   C.3       1 RES1   0.0000
   283 H153     -5.4564    1.6892   -9.0302   H         1 RES1   0.0000
   284 H154     -4.2385    1.1540  -10.1801   H         1 RES1   0.0000
   285 H155     -3.8300    2.3828   -8.9815   H         1 RES1   0.0000
   286 H156     -4.5301   -0.5332   -8.4101   H         1 RES1   0.0000
   287 H157     -4.2112    0.6733   -7.1550   H         1 RES1   0.0000
   288 H158     -1.8941    0.9420   -7.9568   H         1 RES1   0.0000
   289 H159     -2.2255   -0.0981   -9.3436   H         1 RES1   0.0000
   290 H160     -2.6594   -2.0123   -7.8371   H         1 RES1   0.0000
   291 H161     -2.2992   -1.0009   -6.4384   H         1 RES1   0.0000
   292 H162      0.0216   -0.6457   -7.3089   H         1 RES1   0.0000
   293 H163     -0.3759   -1.6000   -8.7298   H         1 RES1   0.0000
   294 H164     -0.7964   -3.5809   -7.3067   H         1 RES1   0.0000
   295 H165      0.8606   -3.0371   -7.2402   H         1 RES1   0.0000
   296 H166     -1.0637   -3.3594   -5.0907   H         1 RES1   0.0000
   297 H167     -0.6308   -1.6583   -5.1610   H         1 RES1   0.0000
   298 H168      1.5850   -3.7105   -5.1081   H         1 RES1   0.0000
   299 H169      0.6621   -3.3652   -3.6166   H         1 RES1   0.0000
   300 H170      2.8886   -0.3367   -5.3665   H         1 RES1   0.0000
   301 H171      2.0257   -1.5239   -6.3225   H         1 RES1   0.0000
   302 H172      4.1933   -2.1276   -6.6579   H         1 RES1   0.0000
   303 H173      3.7240   -3.2626   -5.4032   H         1 RES1   0.0000
   304 H174      5.9213   -2.4497   -4.9285   H         1 RES1   0.0000
   305 H175      4.8443   -1.8071   -3.6986   H         1 RES1   0.0000
   306 H176      4.7927    0.3896   -5.0175   H         1 RES1   0.0000
   307 H177      5.9301   -0.3156   -6.1504   H         1 RES1   0.0000
   308 H178      7.5783   -0.6724   -4.3869   H         1 RES1   0.0000
   309 H179      6.4843   -0.0318   -3.1580   H         1 RES1   0.0000
   310 H180      7.3904    1.6843   -5.4986   H         1 RES1   0.0000
   311 H181      8.3970    1.4174   -4.0875   H         1 RES1   0.0000
   312 H182      7.3604    3.4334   -3.6230   H         1 RES1   0.0000
   313 H183      6.5096    2.2589   -2.6327   H         1 RES1   0.0000
   314 H184      5.5187    3.4559   -5.2700   H         1 RES1   0.0000
   315 H185      4.9911    3.9191   -3.6548   H         1 RES1   0.0000
   316 H186      4.5990    2.3213   -4.2827   H         1 RES1   0.0000
   317 H187      3.5516   -0.1386   -3.2192   H         1 RES1   0.0000
   318 H188      0.9611    1.4583   -2.9682   H         1 RES1   0.0000
   319 H189      1.9473    1.3175   -4.4260   H         1 RES1   0.0000
   320 H190      2.5904    2.1689   -3.0262   H         1 RES1   0.0000
   321 H191      4.4794   -0.7771   -1.5684   H         1 RES1   0.0000
   322 H192      3.9348    1.5330    0.3606   H         1 RES1   0.0000
   323 H193      4.5387    1.7250   -1.2854   H         1 RES1   0.0000
   324 H194      5.5495    0.9548   -0.0822   H         1 RES1   0.0000
   325 H195      4.5887   -3.6992    1.7644   H         1 RES1   0.0000
   326 H196      3.4059   -2.5658    2.3618   H         1 RES1   0.0000
   327 H197      6.0817   -1.7314    3.2743   H         1 RES1   0.0000
   328 H198      5.8234   -3.4265    3.6296   H         1 RES1   0.0000
   329 H199      3.6010   -2.8467    4.5963   H         1 RES1   0.0000
   330 H200      4.0254   -1.1253    4.4938   H         1 RES1   0.0000
   331 H201      5.6349   -3.1856    6.0458   H         1 RES1   0.0000
   332 H202      4.1811   -2.4842    6.7310   H         1 RES1   0.0000
   333 H203      6.4144   -0.6431    5.8640   H         1 RES1   0.0000
   334 H204      6.5868   -1.5842    7.3326   H         1 RES1   0.0000
   335 H205      4.6932   -0.4795    8.3664   H         1 RES1   0.0000
   336 H206      4.2616    0.3425    6.8753   H         1 RES1   0.0000
   337 H207      6.7101    1.3121    6.9703   H         1 RES1   0.0000
   338 H208      6.5967    0.9632    8.6821   H         1 RES1   0.0000
   339 H209      4.5661    2.6265    7.1306   H         1 RES1   0.0000
   340 H210      5.9500    3.2876    8.0045   H         1 RES1   0.0000
   341 H211      4.6635    2.4808    8.8917   H         1 RES1   0.0000
   342 H212      6.5072   -0.6787    0.9827   H         1 RES1   0.0000
   343 H213      6.0498   -1.4443   -0.5432   H         1 RES1   0.0000
   344 H214      6.5359   -3.6985    0.8868   H         1 RES1   0.0000
   345 H215      7.5380   -2.5738    1.7871   H         1 RES1   0.0000
   346 H216      8.8464   -3.6576    0.1642   H         1 RES1   0.0000
   347 H217      8.7404   -1.9633   -0.2916   H         1 RES1   0.0000
   348 H218      8.6829   -3.4218   -2.2026   H         1 RES1   0.0000
   349 H219      7.1842   -2.5195   -2.1262   H         1 RES1   0.0000
   350 H220      7.3727   -5.3246   -0.9736   H         1 RES1   0.0000
   351 H221      7.2210   -5.0933   -2.7021   H         1 RES1   0.0000
   352 H222      5.1282   -3.7349   -2.2901   H         1 RES1   0.0000
   353 H223      5.1928   -4.2362   -0.6091   H         1 RES1   0.0000
   354 H224      3.8151   -5.8944   -1.4391   H         1 RES1   0.0000
   355 H225      5.3706   -6.6778   -1.6753   H         1 RES1   0.0000
   356 H226      3.7749   -5.1490   -3.7764   H         1 RES1   0.0000
   357 H227      4.0073   -6.8957   -3.7064   H         1 RES1   0.0000
   358 H228      5.3696   -5.8480   -4.0654   H         1 RES1   0.0000
@<TRIPOS>BOND
     1     1    20    1
     2     1    23    1
     3     1    27    1
     4     1   139    1
     5     1   142    1
     6     1   146    1
     7     1   258    1
     8     1   261    1
     9     1   265    1
    10     2     3    1
    11     2    45    1
    12     2    46    1
    13     2    47    1
    14     3     4    1
    15     3    48    1
    16     3    49    1
    17     4     5    1
    18     4    50    1
    19     4    51    1
    20     5     6    1
    21     5    52    1
    22     5    53    1
    23     6     7    1
    24     6    54    1
    25     6    55    1
    26     7     8    1
    27     7    56    1
    28     7    57    1
    29     8     9    1
    30     8    58    1
    31     8    59    1
    32     9    10    1
    33     9    60    1
    34     9    61    1
    35    10    11    1
    36    10    19    1
    37    11    12    1
    38    11    62    1
    39    11    63    1
    40    12    13    1
    41    12    64    1
    42    12    65    1
    43    13    14    1
    44    13    66    1
    45    13    67    1
    46    14    15    1
    47    14    68    1
    48    14    69    1
    49    15    16    1
    50    15    70    1
    51    15    71    1
    52    16    17    1
    53    16    72    1
    54    16    73    1
    55    17    18    1
    56    17    74    1
    57    17    75    1
    58    18    76    1
    59    18    77    1
    60    18    78    1
    61    19    20    2
    62    19    21    1
    63    21    22    1
    64    21    23    1
    65    21    79    1
    66    22    80    1
    67    22    81    1
    68    22    82    1
    69    23    24    1
    70    24    25    1
    71    24    26    1
    72    24    83    1
    73    25    84    1
    74    25    85    1
    75    25    86    1
    76    26    27    2
    77    26    28    1
    78    28    29    1
    79    28    37    1
    80    29    30    1
    81    29    87    1
    82    29    88    1
    83    30    31    1
    84    30    89    1
    85    30    90    1
    86    31    32    1
    87    31    91    1
    88    31    92    1
    89    32    33    1
    90    32    93    1
    91    32    94    1
    92    33    34    1
    93    33    95    1
    94    33    96    1
    95    34    35    1
    96    34    97    1
    97    34    98    1
    98    35    36    1
    99    35    99    1
   100    35   100    1
   101    36   101    1
   102    36   102    1
   103    36   103    1
   104    37    38    1
   105    37   104    1
   106    37   105    1
   107    38    39    1
   108    38   106    1
   109    38   107    1
   110    39    40    1
   111    39   108    1
   112    39   109    1
   113    40    41    1
   114    40   110    1
   115    40   111    1
   116    41    42    1
   117    41   112    1
   118    41   113    1
   119    42    43    1
   120    42   114    1
   121    42   115    1
   122    43    44    1
   123    43   116    1
   124    43   117    1
   125    44   118    1
   126    44   119    1
   127    44   120    1
   128   121   122    1
   129   121   164    1
   130   121   165    1
   131   121   166    1
   132   122   123    1
   133   122   167    1
   134   122   168    1
   135   123   124    1
   136   123   169    1
   137   123   170    1
   138   124   125    1
   139   124   171    1
   140   124   172    1
   141   125   126    1
   142   125   173    1
   143   125   174    1
   144   126   127    1
   145   126   175    1
   146   126   176    1
   147   127   128    1
   148   127   177    1
   149   127   178    1
   150   128   129    1
   151   128   179    1
   152   128   180    1
   153   129   130    1
   154   129   138    1
   155   130   131    1
   156   130   181    1
   157   130   182    1
   158   131   132    1
   159   131   183    1
   160   131   184    1
   161   132   133    1
   162   132   185    1
   163   132   186    1
   164   133   134    1
   165   133   187    1
   166   133   188    1
   167   134   135    1
   168   134   189    1
   169   134   190    1
   170   135   136    1
   171   135   191    1
   172   135   192    1
   173   136   137    1
   174   136   193    1
   175   136   194    1
   176   137   195    1
   177   137   196    1
   178   137   197    1
   179   138   139    2
   180   138   140    1
   181   140   141    1
   182   140   142    1
   183   140   198    1
   184   141   199    1
   185   141   200    1
   186   141   201    1
   187   142   143    1
   188   143   144    1
   189   143   145    1
   190   143   202    1
   191   144   203    1
   192   144   204    1
   193   144   205    1
   194   145   146    2
   195   145   147    1
   196   147   148    1
   197   147   156    1
   198   148   149    1
   199   148   206    1
   200   148   207    1
   201   149   150    1
   202   149   208    1
   203   149   209    1
   204   150   151    1
   205   150   210    1
   206   150   211    1
   207   151   152    1
   208   151   212    1
   209   151   213    1
   210   152   153    1
   211   152   214    1
   212   152   215    1
   213   153   154    1
   214   153   216    1
   215   153   217    1
   216   154   155    1
   217   154   218    1
   218   154   219    1
   219   155   220    1
   220   155   221    1
   221   155   222    1
   222   156   157    1
   223   156   223    1
   224   156   224    1
   225   157   158    1
   226   157   225    1
   227   157   226    1
   228   158   159    1
   229   158   227    1
   230   158   228    1
   231   159   160    1
   232   159   229    1
   233   159   230    1
   234   160   161    1
   235   160   231    1
   236   160   232    1
   237   161   162    1
   238   161   233    1
   239   161   234    1
   240   162   163    1
   241   162   235    1
   242   162   236    1
   243   163   237    1
   244   163   238    1
   245   163   239    1
   246   240   241    1
   247   240   283    1
   248   240   284    1
   249   240   285    1
   250   241   242    1
   251   241   286    1
   252   241   287    1
   253   242   243    1
   254   242   288    1
   255   242   289    1
   256   243   244    1
   257   243   290    1
   258   243   291    1
   259   244   245    1
   260   244   292    1
   261   244   293    1
   262   245   246    1
   263   245   294    1
   264   245   295    1
   265   246   247    1
   266   246   296    1
   267   246   297    1
   268   247   248    1
   269   247   298    1
   270   247   299    1
   271   248   249    1
   272   248   257    1
   273   249   250    1
   274   249   300    1
   275   249   301    1
   276   250   251    1
   277   250   302    1
   278   250   303    1
   279   251   252    1
   280   251   304    1
   281   251   305    1
   282   252   253    1
   283   252   306    1
   284   252   307    1
   285   253   254    1
   286   253   308    1
   287   253   309    1
   288   254   255    1
   289   254   310    1
   290   254   311    1
   291   255   256    1
   292   255   312    1
   293   255   313    1
   294   256   314    1
   295   256   315    1
   296   256   316    1
   297   257   258    2
   298   257   259    1
   299   259   260    1
   300   259   261    1
   301   259   317    1
   302   260   318    1
   303   260   319    1
   304   260   320    1
   305   261   262    1
   306   262   263    1
   307   262   264    1
   308   262   321    1
   309   263   322    1
   310   263   323    1
   311   263   324    1
   312   264   265    2
   313   264   266    1
   314   266   267    1
   315   266   275    1
   316   267   268    1
   317   267   325    1
   318   267   326    1
   319   268   269    1
   320   268   327    1
   321   268   328    1
   322   269   270    1
   323   269   329    1
   324   269   330    1
   325   270   271    1
   326   270   331    1
   327   270   332    1
   328   271   272    1
   329   271   333    1
   330   271   334    1
   331   272   273    1
   332   272   335    1
   333   272   336    1
   334   273   274    1
   335   273   337    1
   336   273   338    1
   337   274   339    1
   338   274   340    1
   339   274   341    1
   340   275   276    1
   341   275   342    1
   342   275   343    1
   343   276   277    1
   344   276   344    1
   345   276   345    1
   346   277   278    1
   347   277   346    1
   348   277   347    1
   349   278   279    1
   350   278   348    1
   351   278   349    1
   352   279   280    1
   353   279   350    1
   354   279   351    1
   355   280   281    1
   356   280   352    1
   357   280   353    1
   358   281   282    1
   359   281   354    1
   360   281   355    1
   361   282   356    1
   362   282   357    1
   363   282   358    1
@<TRIPOS>SUBSTRUCTURE
     1 RES1      358 GROUP             0 ****  ****    0  
