@<TRIPOS>MOLECULE
capped_square_antiprismatic_0_nunpairedes_0_charge_3 Charge: 3 Unpaired_Electrons: 2 XTB_Unpaired_Electrons: 0 XTB_Charge: 3
   412   417     1     0     0
SMALL
NoCharges
****
Generated from Architector

@<TRIPOS>ATOM
     1 Pr1      -0.0829   -0.0497    0.2198   Pr        1 RES1   0.0000
     2 C1        5.3544    0.2423    3.2578   C.3       1 RES1   0.0000
     3 C2        6.2412   -0.5363    2.2917   C.3       1 RES1   0.0000
     4 C3        5.3860   -1.3996    1.3694   C.3       1 RES1   0.0000
     5 C4        6.1593   -2.3566    0.4586   C.3       1 RES1   0.0000
     6 C5        5.1689   -3.1668   -0.3865   C.3       1 RES1   0.0000
     7 C6        5.6857   -4.4978   -0.9302   C.3       1 RES1   0.0000
     8 C7        4.5464   -5.4282   -1.3657   C.3       1 RES1   0.0000
     9 C8        3.7382   -6.0197   -0.1993   C.3       1 RES1   0.0000
    10 C9        2.3784   -5.3562    0.0442   C.3       1 RES1   0.0000
    11 C10       1.7793   -5.7469    1.4067   C.3       1 RES1   0.0000
    12 C11       1.3566   -4.5739    2.3003   C.3       1 RES1   0.0000
    13 C12       2.5135   -3.6498    2.6772   C.3       1 RES1   0.0000
    14 N1        2.0611   -2.5401    3.5139   N.am      1 RES1   0.0000
    15 C13       2.4199   -2.6461    4.9272   C.3       1 RES1   0.0000
    16 C14       1.3543   -2.3556    5.9803   C.3       1 RES1   0.0000
    17 C15       0.0235   -3.0636    5.7415   C.3       1 RES1   0.0000
    18 C16      -1.0726   -2.4988    6.6520   C.3       1 RES1   0.0000
    19 C17      -0.7659   -2.4763    8.1569   C.3       1 RES1   0.0000
    20 C18      -0.6516   -3.8358    8.8604   C.3       1 RES1   0.0000
    21 C19       0.7259   -4.4974    8.8107   C.3       1 RES1   0.0000
    22 C20       0.7980   -5.6651    9.7868   C.3       1 RES1   0.0000
    23 C21       1.4588   -1.5350    2.8851   C.2       1 RES1   0.0000
    24 O1        1.3240   -1.5138    1.6468   O.2       1 RES1   0.0000
    25 C22       0.8665   -0.3814    3.6819   C.3       1 RES1   0.0000
    26 O2        0.5867    0.6758    2.7732   O.3       1 RES1   0.0000
    27 C23      -0.2898    1.6557    3.3223   C.3       1 RES1   0.0000
    28 C24      -1.7122    1.3390    2.8309   C.2       1 RES1   0.0000
    29 O3       -1.7835    0.9514    1.6451   O.2       1 RES1   0.0000
    30 N2       -2.7606    1.4539    3.6296   N.am      1 RES1   0.0000
    31 C25      -2.6870    1.9572    4.9935   C.3       1 RES1   0.0000
    32 C26      -2.3149    3.4466    5.0789   C.3       1 RES1   0.0000
    33 C27      -1.5606    3.7485    6.3767   C.3       1 RES1   0.0000
    34 C28      -0.9779    5.1596    6.4074   C.3       1 RES1   0.0000
    35 C29      -0.3159    5.5012    7.7442   C.3       1 RES1   0.0000
    36 C30       0.7890    4.5482    8.2033   C.3       1 RES1   0.0000
    37 C31       1.9864    4.4812    7.2597   C.3       1 RES1   0.0000
    38 C32       3.0944    3.5907    7.8130   C.3       1 RES1   0.0000
    39 C33      -4.0902    1.0993    3.1440   C.3       1 RES1   0.0000
    40 C34      -4.6378   -0.1442    3.8508   C.3       1 RES1   0.0000
    41 C35      -3.8787   -1.4221    3.4886   C.3       1 RES1   0.0000
    42 C36      -4.2869   -2.5803    4.3992   C.3       1 RES1   0.0000
    43 C37      -3.7675   -3.9309    3.9106   C.3       1 RES1   0.0000
    44 C38      -3.8146   -5.0049    4.9971   C.3       1 RES1   0.0000
    45 C39      -3.4817   -6.3904    4.4412   C.3       1 RES1   0.0000
    46 C40      -2.8971   -7.3597    5.4703   C.3       1 RES1   0.0000
    47 C41      -1.4109   -7.1267    5.7387   C.3       1 RES1   0.0000
    48 C42      -0.7784   -8.3237    6.4444   C.3       1 RES1   0.0000
    49 C43       0.6969   -8.1225    6.8010   C.3       1 RES1   0.0000
    50 C44       1.6332   -8.1393    5.5943   C.3       1 RES1   0.0000
    51 H1        5.9576    0.8452    3.9273   H         1 RES1   0.0000
    52 H2        4.7598   -0.4478    3.8555   H         1 RES1   0.0000
    53 H3        4.6753    0.9050    2.7232   H         1 RES1   0.0000
    54 H4        6.9140   -1.1831    2.8565   H         1 RES1   0.0000
    55 H5        6.8551    0.1514    1.7079   H         1 RES1   0.0000
    56 H6        4.7537   -0.7589    0.7481   H         1 RES1   0.0000
    57 H7        4.7222   -1.9990    1.9987   H         1 RES1   0.0000
    58 H8        6.7554   -3.0257    1.0808   H         1 RES1   0.0000
    59 H9        6.8459   -1.8033   -0.1835   H         1 RES1   0.0000
    60 H10       4.8153   -2.5461   -1.2167   H         1 RES1   0.0000
    61 H11       4.3155   -3.3819    0.2535   H         1 RES1   0.0000
    62 H12       6.2792   -4.9972   -0.1635   H         1 RES1   0.0000
    63 H13       6.3414   -4.3140   -1.7817   H         1 RES1   0.0000
    64 H14       4.9861   -6.2420   -1.9396   H         1 RES1   0.0000
    65 H15       3.8759   -4.8840   -2.0334   H         1 RES1   0.0000
    66 H16       4.3358   -5.9378    0.7069   H         1 RES1   0.0000
    67 H17       3.5717   -7.0835   -0.3717   H         1 RES1   0.0000
    68 H18       1.6981   -5.6350   -0.7648   H         1 RES1   0.0000
    69 H19       2.4967   -4.2753   -0.0043   H         1 RES1   0.0000
    70 H20       2.5035   -6.3508    1.9521   H         1 RES1   0.0000
    71 H21       0.9029   -6.3743    1.2584   H         1 RES1   0.0000
    72 H22       0.9121   -4.9775    3.2127   H         1 RES1   0.0000
    73 H23       0.5947   -3.9560    1.8153   H         1 RES1   0.0000
    74 H24       2.9391   -3.2209    1.7714   H         1 RES1   0.0000
    75 H25       3.2919   -4.2036    3.2005   H         1 RES1   0.0000
    76 H26       3.2777   -1.9912    5.1070   H         1 RES1   0.0000
    77 H27       2.7493   -3.6763    5.0830   H         1 RES1   0.0000
    78 H28       1.1845   -1.2861    6.1018   H         1 RES1   0.0000
    79 H29       1.7639   -2.7126    6.9249   H         1 RES1   0.0000
    80 H30       0.1383   -4.1323    5.9267   H         1 RES1   0.0000
    81 H31      -0.2929   -2.9338    4.6990   H         1 RES1   0.0000
    82 H32      -1.9892   -3.0724    6.4933   H         1 RES1   0.0000
    83 H33      -1.2795   -1.4628    6.3457   H         1 RES1   0.0000
    84 H34      -1.5949   -1.9351    8.6216   H         1 RES1   0.0000
    85 H35       0.1377   -1.8926    8.3484   H         1 RES1   0.0000
    86 H36      -1.3975   -4.5236    8.4543   H         1 RES1   0.0000
    87 H37      -0.8960   -3.6712    9.9125   H         1 RES1   0.0000
    88 H38       1.4943   -3.7688    9.0804   H         1 RES1   0.0000
    89 H39       0.9404   -4.8563    7.8017   H         1 RES1   0.0000
    90 H40       0.6955   -5.3107   10.8080   H         1 RES1   0.0000
    91 H41       1.7523   -6.1765    9.7026   H         1 RES1   0.0000
    92 H42       0.0010   -6.3797    9.5979   H         1 RES1   0.0000
    93 H43       1.5482   -0.0341    4.4668   H         1 RES1   0.0000
    94 H44      -0.0656   -0.7507    4.1231   H         1 RES1   0.0000
    95 H45       0.0138    2.6140    2.8792   H         1 RES1   0.0000
    96 H46      -0.1875    1.7037    4.4072   H         1 RES1   0.0000
    97 H47      -1.9616    1.3615    5.5548   H         1 RES1   0.0000
    98 H48      -3.6628    1.7999    5.4492   H         1 RES1   0.0000
    99 H49      -3.2132    4.0627    5.0271   H         1 RES1   0.0000
   100 H50      -1.6975    3.7136    4.2185   H         1 RES1   0.0000
   101 H51      -0.7498    3.0253    6.4902   H         1 RES1   0.0000
   102 H52      -2.2365    3.6196    7.2220   H         1 RES1   0.0000
   103 H53      -1.7782    5.8792    6.2245   H         1 RES1   0.0000
   104 H54      -0.2520    5.2660    5.6005   H         1 RES1   0.0000
   105 H55      -1.0896    5.5205    8.5115   H         1 RES1   0.0000
   106 H56       0.1012    6.5061    7.6692   H         1 RES1   0.0000
   107 H57       0.3824    3.5474    8.3557   H         1 RES1   0.0000
   108 H58       1.1402    4.8920    9.1766   H         1 RES1   0.0000
   109 H59       2.3761    5.4896    7.1142   H         1 RES1   0.0000
   110 H60       1.6742    4.1009    6.2832   H         1 RES1   0.0000
   111 H61       3.4323    3.9580    8.7785   H         1 RES1   0.0000
   112 H62       3.9465    3.5748    7.1363   H         1 RES1   0.0000
   113 H63       2.7469    2.5674    7.9509   H         1 RES1   0.0000
   114 H64      -4.0321    0.9108    2.0698   H         1 RES1   0.0000
   115 H65      -4.7545    1.9493    3.3162   H         1 RES1   0.0000
   116 H66      -5.6859   -0.2526    3.5637   H         1 RES1   0.0000
   117 H67      -4.6140   -0.0125    4.9349   H         1 RES1   0.0000
   118 H68      -2.7965   -1.2604    3.5468   H         1 RES1   0.0000
   119 H69      -4.0964   -1.6829    2.4554   H         1 RES1   0.0000
   120 H70      -5.3749   -2.6137    4.4555   H         1 RES1   0.0000
   121 H71      -3.9092   -2.3914    5.4045   H         1 RES1   0.0000
   122 H72      -2.7373   -3.8107    3.5658   H         1 RES1   0.0000
   123 H73      -4.3650   -4.2611    3.0576   H         1 RES1   0.0000
   124 H74      -4.8076   -5.0096    5.4459   H         1 RES1   0.0000
   125 H75      -3.1028   -4.7546    5.7824   H         1 RES1   0.0000
   126 H76      -2.7512   -6.2761    3.6384   H         1 RES1   0.0000
   127 H77      -4.3880   -6.8168    4.0078   H         1 RES1   0.0000
   128 H78      -3.0225   -8.3742    5.0922   H         1 RES1   0.0000
   129 H79      -3.4508   -7.2935    6.4060   H         1 RES1   0.0000
   130 H80      -1.2789   -6.2352    6.3540   H         1 RES1   0.0000
   131 H81      -0.8963   -6.9611    4.7902   H         1 RES1   0.0000
   132 H82      -0.8740   -9.2035    5.8055   H         1 RES1   0.0000
   133 H83      -1.3330   -8.5216    7.3628   H         1 RES1   0.0000
   134 H84       1.0052   -8.9165    7.4853   H         1 RES1   0.0000
   135 H85       0.8146   -7.1756    7.3313   H         1 RES1   0.0000
   136 H86       1.5509   -9.0844    5.0612   H         1 RES1   0.0000
   137 H87       2.6659   -8.0206    5.9213   H         1 RES1   0.0000
   138 H88       1.4014   -7.3321    4.8980   H         1 RES1   0.0000
   139 C45       9.1637    1.2226   -0.8111   C.3       1 RES1   0.0000
   140 C46       9.2552    2.7460   -0.7767   C.3       1 RES1   0.0000
   141 C47       7.9299    3.3645   -1.2211   C.3       1 RES1   0.0000
   142 C48       7.9580    4.8855   -1.3727   C.3       1 RES1   0.0000
   143 C49       6.5884    5.4936   -1.6950   C.3       1 RES1   0.0000
   144 C50       5.9897    5.0953   -3.0426   C.3       1 RES1   0.0000
   145 C51       4.5217    5.5206   -3.1271   C.3       1 RES1   0.0000
   146 C52       3.7479    4.9087   -4.3112   C.3       1 RES1   0.0000
   147 C53       2.5758    4.0318   -3.8487   C.3       1 RES1   0.0000
   148 C54       2.1473    2.9988   -4.8920   C.3       1 RES1   0.0000
   149 C55       1.4587    1.7545   -4.2890   C.3       1 RES1   0.0000
   150 C56       2.4081    0.5710   -4.4651   C.3       1 RES1   0.0000
   151 N3        2.0733   -0.7562   -3.9040   N.am      1 RES1   0.0000
   152 C57       2.7850   -1.7631   -4.7087   C.3       1 RES1   0.0000
   153 C58       2.5488   -3.2609   -4.6023   C.3       1 RES1   0.0000
   154 C59       1.1221   -3.6779   -4.9407   C.3       1 RES1   0.0000
   155 C60       0.8602   -5.1475   -4.6190   C.3       1 RES1   0.0000
   156 C61       1.6783   -6.1279   -5.4562   C.3       1 RES1   0.0000
   157 C62       1.3721   -6.0548   -6.9589   C.3       1 RES1   0.0000
   158 C63       2.4250   -5.3074   -7.7806   C.3       1 RES1   0.0000
   159 C64       2.2068   -5.5452   -9.2714   C.3       1 RES1   0.0000
   160 C65       1.5435   -0.8650   -2.6889   C.2       1 RES1   0.0000
   161 O4        1.0870    0.1064   -2.0582   O.2       1 RES1   0.0000
   162 C66       1.4472   -2.2146   -1.9697   C.3       1 RES1   0.0000
   163 O5        0.4251   -2.0589   -0.9912   O.3       1 RES1   0.0000
   164 C67      -0.3706   -3.2112   -0.7271   C.3       1 RES1   0.0000
   165 C68      -1.5910   -2.6166   -0.0131   C.2       1 RES1   0.0000
   166 O6       -1.4092   -1.6515    0.7479   O.2       1 RES1   0.0000
   167 N4       -2.8143   -3.0490   -0.3082   N.am      1 RES1   0.0000
   168 C69      -3.0097   -4.4923   -0.4417   C.3       1 RES1   0.0000
   169 C70      -2.4160   -5.3054    0.7297   C.3       1 RES1   0.0000
   170 C71      -2.0647   -6.7319    0.2746   C.3       1 RES1   0.0000
   171 C72      -1.7098   -7.6692    1.4382   C.3       1 RES1   0.0000
   172 C73      -1.1635   -9.0437    1.0143   C.3       1 RES1   0.0000
   173 C74       0.3296   -9.1534    0.6686   C.3       1 RES1   0.0000
   174 C75       1.2407   -9.3785    1.8753   C.3       1 RES1   0.0000
   175 C76       2.6839   -9.6559    1.4576   C.3       1 RES1   0.0000
   176 C77      -3.9071   -2.0665   -0.1584   C.3       1 RES1   0.0000
   177 C78      -4.7968   -1.9580   -1.4204   C.3       1 RES1   0.0000
   178 C79      -4.7762   -0.6781   -2.2928   C.3       1 RES1   0.0000
   179 C80      -5.5679   -0.9848   -3.5840   C.3       1 RES1   0.0000
   180 C81      -5.6877    0.0107   -4.7627   C.3       1 RES1   0.0000
   181 C82      -5.3275   -0.6488   -6.1189   C.3       1 RES1   0.0000
   182 C83      -4.6972    0.3125   -7.1356   C.3       1 RES1   0.0000
   183 C84      -3.9690   -0.3559   -8.3114   C.3       1 RES1   0.0000
   184 C85      -2.5923   -0.9068   -7.9517   C.3       1 RES1   0.0000
   185 C86      -1.7618   -1.3334   -9.1624   C.3       1 RES1   0.0000
   186 C87      -0.3900   -1.8314   -8.6980   C.3       1 RES1   0.0000
   187 C88       0.5821   -2.0660   -9.8459   C.3       1 RES1   0.0000
   188 H89      10.0952    0.7626   -0.4957   H         1 RES1   0.0000
   189 H90       8.9440    0.8820   -1.8218   H         1 RES1   0.0000
   190 H91       8.3754    0.8696   -0.1456   H         1 RES1   0.0000
   191 H92      10.0528    3.0793   -1.4411   H         1 RES1   0.0000
   192 H93       9.5092    3.0764    0.2314   H         1 RES1   0.0000
   193 H94       7.1571    3.0806   -0.4994   H         1 RES1   0.0000
   194 H95       7.6768    2.9211   -2.1831   H         1 RES1   0.0000
   195 H96       8.6741    5.1490   -2.1507   H         1 RES1   0.0000
   196 H97       8.3154    5.3246   -0.4385   H         1 RES1   0.0000
   197 H98       6.6634    6.5804   -1.6650   H         1 RES1   0.0000
   198 H99       5.8932    5.2000   -0.9031   H         1 RES1   0.0000
   199 H100      6.0649    4.0206   -3.1739   H         1 RES1   0.0000
   200 H101      6.5466    5.5669   -3.8491   H         1 RES1   0.0000
   201 H102      4.4744    6.6068   -3.1671   H         1 RES1   0.0000
   202 H103      4.0272    5.2339   -2.1977   H         1 RES1   0.0000
   203 H104      4.4350    4.3050   -4.9065   H         1 RES1   0.0000
   204 H105      3.3761    5.6980   -4.9630   H         1 RES1   0.0000
   205 H106      1.7311    4.6671   -3.5736   H         1 RES1   0.0000
   206 H107      2.8914    3.5009   -2.9545   H         1 RES1   0.0000
   207 H108      3.0477    2.6662   -5.4016   H         1 RES1   0.0000
   208 H109      1.5246    3.4746   -5.6453   H         1 RES1   0.0000
   209 H110      0.5091    1.5378   -4.7794   H         1 RES1   0.0000
   210 H111      1.2634    1.9200   -3.2313   H         1 RES1   0.0000
   211 H112      3.3759    0.8499   -4.0495   H         1 RES1   0.0000
   212 H113      2.5369    0.4434   -5.5418   H         1 RES1   0.0000
   213 H114      3.8563   -1.6008   -4.5401   H         1 RES1   0.0000
   214 H115      2.5583   -1.5119   -5.7494   H         1 RES1   0.0000
   215 H116      2.8715   -3.6623   -3.6431   H         1 RES1   0.0000
   216 H117      3.2063   -3.7072   -5.3520   H         1 RES1   0.0000
   217 H118      0.9441   -3.4932   -5.9989   H         1 RES1   0.0000
   218 H119      0.4113   -3.0639   -4.3901   H         1 RES1   0.0000
   219 H120     -0.1973   -5.3671   -4.7794   H         1 RES1   0.0000
   220 H121      1.0696   -5.3244   -3.5578   H         1 RES1   0.0000
   221 H122      1.4506   -7.1282   -5.0875   H         1 RES1   0.0000
   222 H123      2.7422   -5.9649   -5.2833   H         1 RES1   0.0000
   223 H124      0.3975   -5.5857   -7.1189   H         1 RES1   0.0000
   224 H125      1.3047   -7.0706   -7.3503   H         1 RES1   0.0000
   225 H126      3.4219   -5.6654   -7.5096   H         1 RES1   0.0000
   226 H127      2.3844   -4.2320   -7.5753   H         1 RES1   0.0000
   227 H128      2.2981   -6.6055   -9.4978   H         1 RES1   0.0000
   228 H129      2.9484   -5.0106   -9.8608   H         1 RES1   0.0000
   229 H130      1.2137   -5.2164   -9.5741   H         1 RES1   0.0000
   230 H131      2.4110   -2.3843   -1.4717   H         1 RES1   0.0000
   231 H132      1.1905   -3.0429   -2.6191   H         1 RES1   0.0000
   232 H133      0.1739   -3.9178   -0.0898   H         1 RES1   0.0000
   233 H134     -0.6605   -3.7122   -1.6589   H         1 RES1   0.0000
   234 H135     -2.5229   -4.8455   -1.3527   H         1 RES1   0.0000
   235 H136     -4.0791   -4.6841   -0.5279   H         1 RES1   0.0000
   236 H137     -3.1196   -5.3473    1.5600   H         1 RES1   0.0000
   237 H138     -1.5148   -4.8153    1.1064   H         1 RES1   0.0000
   238 H139     -1.2376   -6.6849   -0.4390   H         1 RES1   0.0000
   239 H140     -2.9262   -7.1483   -0.2478   H         1 RES1   0.0000
   240 H141     -2.6239   -7.8482    2.0077   H         1 RES1   0.0000
   241 H142     -0.9963   -7.1736    2.0964   H         1 RES1   0.0000
   242 H143     -1.7515   -9.3788    0.1599   H         1 RES1   0.0000
   243 H144     -1.3460   -9.7492    1.8260   H         1 RES1   0.0000
   244 H145      0.6726   -8.2765    0.1198   H         1 RES1   0.0000
   245 H146      0.4653  -10.0088    0.0050   H         1 RES1   0.0000
   246 H147      0.8729  -10.2370    2.4337   H         1 RES1   0.0000
   247 H148      1.2095   -8.5193    2.5448   H         1 RES1   0.0000
   248 H149      2.7773  -10.6578    1.0468   H         1 RES1   0.0000
   249 H150      3.3629   -9.5804    2.3045   H         1 RES1   0.0000
   250 H151      3.0155   -8.9512    0.6979   H         1 RES1   0.0000
   251 H152     -3.4182   -1.1083    0.0593   H         1 RES1   0.0000
   252 H153     -4.5271   -2.3419    0.6995   H         1 RES1   0.0000
   253 H154     -5.8295   -2.0998   -1.1138   H         1 RES1   0.0000
   254 H155     -4.5418   -2.8016   -2.0561   H         1 RES1   0.0000
   255 H156     -3.7526   -0.3998   -2.5139   H         1 RES1   0.0000
   256 H157     -5.2260    0.1526   -1.7496   H         1 RES1   0.0000
   257 H158     -6.5809   -1.2463   -3.2866   H         1 RES1   0.0000
   258 H159     -5.1115   -1.8804   -3.9937   H         1 RES1   0.0000
   259 H160     -5.0792    0.9023   -4.6175   H         1 RES1   0.0000
   260 H161     -6.7142    0.3757   -4.8293   H         1 RES1   0.0000
   261 H162     -6.2404   -1.0651   -6.5470   H         1 RES1   0.0000
   262 H163     -4.6416   -1.4835   -5.9662   H         1 RES1   0.0000
   263 H164     -3.9859    0.9721   -6.6323   H         1 RES1   0.0000
   264 H165     -5.4928    0.9420   -7.5273   H         1 RES1   0.0000
   265 H166     -3.8372    0.3839   -9.1018   H         1 RES1   0.0000
   266 H167     -4.5734   -1.1530   -8.7353   H         1 RES1   0.0000
   267 H168     -2.6809   -1.7693   -7.2898   H         1 RES1   0.0000
   268 H169     -2.0336   -0.1260   -7.4267   H         1 RES1   0.0000
   269 H170     -1.6306   -0.4877   -9.8427   H         1 RES1   0.0000
   270 H171     -2.2748   -2.1274   -9.7076   H         1 RES1   0.0000
   271 H172     -0.5155   -2.7591   -8.1299   H         1 RES1   0.0000
   272 H173      0.0414   -1.0858   -8.0207   H         1 RES1   0.0000
   273 H174      0.2090   -2.8344  -10.5157   H         1 RES1   0.0000
   274 H175      1.5572   -2.3761   -9.4759   H         1 RES1   0.0000
   275 H176      0.7191   -1.1531  -10.4179   H         1 RES1   0.0000
   276 C89      -8.1902   -1.1057    0.8557   C.3       1 RES1   0.0000
   277 C90      -8.8684   -2.2251    0.0662   C.3       1 RES1   0.0000
   278 C91      -8.0088   -3.4960   -0.1241   C.3       1 RES1   0.0000
   279 C92      -7.8933   -3.9186   -1.5999   C.3       1 RES1   0.0000
   280 C93      -6.6755   -4.8073   -1.9145   C.3       1 RES1   0.0000
   281 C94      -6.1321   -4.5198   -3.3203   C.3       1 RES1   0.0000
   282 C95      -4.8264   -5.2606   -3.6669   C.3       1 RES1   0.0000
   283 C96      -3.8856   -4.5351   -4.6633   C.3       1 RES1   0.0000
   284 C97      -2.7215   -3.7720   -3.9860   C.3       1 RES1   0.0000
   285 C98      -2.2286   -2.5138   -4.7176   C.3       1 RES1   0.0000
   286 C99      -1.6915   -1.4070   -3.7797   C.3       1 RES1   0.0000
   287 C100     -2.1049   -0.0558   -4.3710   C.3       1 RES1   0.0000
   288 N5       -1.9255    1.2146   -3.6325   N.am      1 RES1   0.0000
   289 C101     -2.6144    2.2735   -4.4117   C.3       1 RES1   0.0000
   290 C102     -2.3882    3.7795   -4.2721   C.3       1 RES1   0.0000
   291 C103     -1.0204    4.2259   -4.7722   C.3       1 RES1   0.0000
   292 C104     -0.7544    5.7259   -4.6190   C.3       1 RES1   0.0000
   293 C105     -1.5600    6.6381   -5.5473   C.3       1 RES1   0.0000
   294 C106     -1.2065    6.5245   -7.0374   C.3       1 RES1   0.0000
   295 C107     -2.1514    5.6447   -7.8574   C.3       1 RES1   0.0000
   296 C108     -1.8997    5.8412   -9.3496   C.3       1 RES1   0.0000
   297 C109     -1.5749    1.2509   -2.3515   C.2       1 RES1   0.0000
   298 O7       -1.4881    0.2440   -1.6220   O.2       1 RES1   0.0000
   299 C110     -1.2413    2.5950   -1.6969   C.3       1 RES1   0.0000
   300 O8       -0.4370    2.3274   -0.5456   O.3       1 RES1   0.0000
   301 C111      0.6735    3.1906   -0.3444   C.3       1 RES1   0.0000
   302 C112      1.8733    2.3320    0.0781   C.2       1 RES1   0.0000
   303 O9        1.7067    1.1191    0.2789   O.2       1 RES1   0.0000
   304 N6        3.0803    2.8836    0.1348   N.am      1 RES1   0.0000
   305 C113      3.2664    4.3157    0.2627   C.3       1 RES1   0.0000
   306 C114      2.6176    4.8907    1.5386   C.3       1 RES1   0.0000
   307 C115      1.8881    6.2032    1.2370   C.3       1 RES1   0.0000
   308 C116      1.1267    6.7618    2.4383   C.3       1 RES1   0.0000
   309 C117      0.5410    8.1513    2.1674   C.3       1 RES1   0.0000
   310 C118     -0.5881    8.2056    1.1360   C.3       1 RES1   0.0000
   311 C119     -1.8742    7.5357    1.6086   C.3       1 RES1   0.0000
   312 C120     -3.0179    7.7321    0.6223   C.3       1 RES1   0.0000
   313 C121      4.2194    1.9873   -0.0989   C.3       1 RES1   0.0000
   314 C122      4.3946    1.9176   -1.6254   C.3       1 RES1   0.0000
   315 C123      5.4415    0.9670   -2.2318   C.3       1 RES1   0.0000
   316 C124      5.8041    1.4621   -3.6503   C.3       1 RES1   0.0000
   317 C125      5.8942    0.4807   -4.8239   C.3       1 RES1   0.0000
   318 C126      5.6646    1.2328   -6.1503   C.3       1 RES1   0.0000
   319 C127      5.1621    0.3387   -7.2884   C.3       1 RES1   0.0000
   320 C128      4.4158    1.0644   -8.4182   C.3       1 RES1   0.0000
   321 C129      2.9655    1.4422   -8.1024   C.3       1 RES1   0.0000
   322 C130      2.1878    1.8435   -9.3576   C.3       1 RES1   0.0000
   323 C131      0.7539    2.2618   -9.0255   C.3       1 RES1   0.0000
   324 C132     -0.0501    2.6110  -10.2709   C.3       1 RES1   0.0000
   325 H177     -8.8937   -0.2909    1.0054   H         1 RES1   0.0000
   326 H178     -7.3283   -0.7066    0.3246   H         1 RES1   0.0000
   327 H179     -7.8668   -1.4349    1.8398   H         1 RES1   0.0000
   328 H180     -9.1359   -1.8243   -0.9123   H         1 RES1   0.0000
   329 H181     -9.8031   -2.4626    0.5716   H         1 RES1   0.0000
   330 H182     -8.4250   -4.3157    0.4635   H         1 RES1   0.0000
   331 H183     -7.0023   -3.3047    0.2650   H         1 RES1   0.0000
   332 H184     -7.8167   -3.0075   -2.1985   H         1 RES1   0.0000
   333 H185     -8.8060   -4.4271   -1.9096   H         1 RES1   0.0000
   334 H186     -6.9314   -5.8612   -1.8289   H         1 RES1   0.0000
   335 H187     -5.9071   -4.6172   -1.1627   H         1 RES1   0.0000
   336 H188     -5.9934   -3.4471   -3.4055   H         1 RES1   0.0000
   337 H189     -6.8980   -4.7966   -4.0454   H         1 RES1   0.0000
   338 H190     -5.0970   -6.2254   -4.0877   H         1 RES1   0.0000
   339 H191     -4.2797   -5.4845   -2.7528   H         1 RES1   0.0000
   340 H192     -4.4759   -3.8500   -5.2759   H         1 RES1   0.0000
   341 H193     -3.4638   -5.2701   -5.3528   H         1 RES1   0.0000
   342 H194     -1.8805   -4.4544   -3.8522   H         1 RES1   0.0000
   343 H195     -3.0566   -3.4560   -3.0024   H         1 RES1   0.0000
   344 H196     -3.0772   -2.0884   -5.2449   H         1 RES1   0.0000
   345 H197     -1.4855   -2.7673   -5.4712   H         1 RES1   0.0000
   346 H198     -0.6076   -1.4335   -3.6460   H         1 RES1   0.0000
   347 H199     -2.1291   -1.5538   -2.7970   H         1 RES1   0.0000
   348 H200     -3.1647   -0.1296   -4.6124   H         1 RES1   0.0000
   349 H201     -1.5517    0.0563   -5.3088   H         1 RES1   0.0000
   350 H202     -3.6819    2.1140   -4.2260   H         1 RES1   0.0000
   351 H203     -2.4094    2.0454   -5.4626   H         1 RES1   0.0000
   352 H204     -2.5851    4.1551   -3.2705   H         1 RES1   0.0000
   353 H205     -3.1402    4.2446   -4.9156   H         1 RES1   0.0000
   354 H206     -0.9302    3.9534   -5.8224   H         1 RES1   0.0000
   355 H207     -0.2506    3.6780   -4.2320   H         1 RES1   0.0000
   356 H208      0.3070    5.9151   -4.8060   H         1 RES1   0.0000
   357 H209     -0.9506    6.0183   -3.5811   H         1 RES1   0.0000
   358 H210     -1.3564    7.6585   -5.2220   H         1 RES1   0.0000
   359 H211     -2.6275    6.4683   -5.4038   H         1 RES1   0.0000
   360 H212     -0.1823    6.1605   -7.1542   H         1 RES1   0.0000
   361 H213     -1.2392    7.5253   -7.4707   H         1 RES1   0.0000
   362 H214     -3.1873    5.9162   -7.6362   H         1 RES1   0.0000
   363 H215     -2.0170    4.5883   -7.6023   H         1 RES1   0.0000
   364 H216     -2.0807    6.8772   -9.6299   H         1 RES1   0.0000
   365 H217     -2.5661    5.2150   -9.9383   H         1 RES1   0.0000
   366 H218     -0.8706    5.5935   -9.6058   H         1 RES1   0.0000
   367 H219     -2.1747    3.0778   -1.3791   H         1 RES1   0.0000
   368 H220     -0.7095    3.2385   -2.3951   H         1 RES1   0.0000
   369 H221      0.4259    3.9635    0.3930   H         1 RES1   0.0000
   370 H222      0.9480    3.6780   -1.2863   H         1 RES1   0.0000
   371 H223      2.8280    4.8305   -0.5986   H         1 RES1   0.0000
   372 H224      4.3402    4.5058    0.2623   H         1 RES1   0.0000
   373 H225      3.3676    5.0625    2.3102   H         1 RES1   0.0000
   374 H226      1.9188    4.1607    1.9545   H         1 RES1   0.0000
   375 H227      1.1889    6.0485    0.4106   H         1 RES1   0.0000
   376 H228      2.6229    6.9382    0.9116   H         1 RES1   0.0000
   377 H229      1.8059    6.8346    3.2900   H         1 RES1   0.0000
   378 H230      0.3261    6.0732    2.7133   H         1 RES1   0.0000
   379 H231      1.3523    8.7982    1.8323   H         1 RES1   0.0000
   380 H232      0.1579    8.5599    3.1038   H         1 RES1   0.0000
   381 H233     -0.2680    7.7653    0.1908   H         1 RES1   0.0000
   382 H234     -0.8098    9.2535    0.9318   H         1 RES1   0.0000
   383 H235     -2.1581    7.9631    2.5690   H         1 RES1   0.0000
   384 H236     -1.7078    6.4671    1.7617   H         1 RES1   0.0000
   385 H237     -3.2273    8.7892    0.4877   H         1 RES1   0.0000
   386 H238     -3.9241    7.2507    0.9823   H         1 RES1   0.0000
   387 H239     -2.7716    7.3156   -0.3522   H         1 RES1   0.0000
   388 H240      3.9525    1.0117    0.3107   H         1 RES1   0.0000
   389 H241      5.1114    2.3684    0.4020   H         1 RES1   0.0000
   390 H242      4.6601    2.9251   -1.9427   H         1 RES1   0.0000
   391 H243      3.4102    1.6595   -2.0312   H         1 RES1   0.0000
   392 H244      5.0530   -0.0506   -2.2620   H         1 RES1   0.0000
   393 H245      6.3295    0.9609   -1.6025   H         1 RES1   0.0000
   394 H246      6.7612    1.9707   -3.5968   H         1 RES1   0.0000
   395 H247      5.0753    2.2194   -3.9309   H         1 RES1   0.0000
   396 H248      5.1614   -0.3207   -4.7305   H         1 RES1   0.0000
   397 H249      6.8725    0.0022   -4.8255   H         1 RES1   0.0000
   398 H250      6.5987    1.7095   -6.4457   H         1 RES1   0.0000
   399 H251      4.9418    2.0351   -5.9898   H         1 RES1   0.0000
   400 H252      4.4929   -0.4224   -6.8802   H         1 RES1   0.0000
   401 H253      6.0226   -0.1815   -7.7078   H         1 RES1   0.0000
   402 H254      4.4022    0.4022   -9.2848   H         1 RES1   0.0000
   403 H255      4.9538    1.9655   -8.7097   H         1 RES1   0.0000
   404 H256      2.9312    2.2805   -7.4051   H         1 RES1   0.0000
   405 H257      2.4485    0.5920   -7.6416   H         1 RES1   0.0000
   406 H258      2.1601    0.9984  -10.0502   H         1 RES1   0.0000
   407 H259      2.7036    2.6689   -9.8519   H         1 RES1   0.0000
   408 H260      0.7661    3.1261   -8.3542   H         1 RES1   0.0000
   409 H261      0.2596    1.4396   -8.5002   H         1 RES1   0.0000
   410 H262      0.3787    3.4717  -10.7747   H         1 RES1   0.0000
   411 H263     -1.0811    2.8467  -10.0200   H         1 RES1   0.0000
   412 H264     -0.0584    1.7790  -10.9684   H         1 RES1   0.0000
@<TRIPOS>BOND
     1     1    24    1
     2     1    26    1
     3     1    29    1
     4     1   161    1
     5     1   163    1
     6     1   166    1
     7     1   298    1
     8     1   300    1
     9     1   303    1
    10     2     3    1
    11     2    51    1
    12     2    52    1
    13     2    53    1
    14     3     4    1
    15     3    54    1
    16     3    55    1
    17     4     5    1
    18     4    56    1
    19     4    57    1
    20     5     6    1
    21     5    58    1
    22     5    59    1
    23     6     7    1
    24     6    60    1
    25     6    61    1
    26     7     8    1
    27     7    62    1
    28     7    63    1
    29     8     9    1
    30     8    64    1
    31     8    65    1
    32     9    10    1
    33     9    66    1
    34     9    67    1
    35    10    11    1
    36    10    68    1
    37    10    69    1
    38    11    12    1
    39    11    70    1
    40    11    71    1
    41    12    13    1
    42    12    72    1
    43    12    73    1
    44    13    14    1
    45    13    74    1
    46    13    75    1
    47    14    15    1
    48    14    23    1
    49    15    16    1
    50    15    76    1
    51    15    77    1
    52    16    17    1
    53    16    78    1
    54    16    79    1
    55    17    18    1
    56    17    80    1
    57    17    81    1
    58    18    19    1
    59    18    82    1
    60    18    83    1
    61    19    20    1
    62    19    84    1
    63    19    85    1
    64    20    21    1
    65    20    86    1
    66    20    87    1
    67    21    22    1
    68    21    88    1
    69    21    89    1
    70    22    90    1
    71    22    91    1
    72    22    92    1
    73    23    24    2
    74    23    25    1
    75    25    26    1
    76    25    93    1
    77    25    94    1
    78    26    27    1
    79    27    28    1
    80    27    95    1
    81    27    96    1
    82    28    29    2
    83    28    30    1
    84    30    31    1
    85    30    39    1
    86    31    32    1
    87    31    97    1
    88    31    98    1
    89    32    33    1
    90    32    99    1
    91    32   100    1
    92    33    34    1
    93    33   101    1
    94    33   102    1
    95    34    35    1
    96    34   103    1
    97    34   104    1
    98    35    36    1
    99    35   105    1
   100    35   106    1
   101    36    37    1
   102    36   107    1
   103    36   108    1
   104    37    38    1
   105    37   109    1
   106    37   110    1
   107    38   111    1
   108    38   112    1
   109    38   113    1
   110    39    40    1
   111    39   114    1
   112    39   115    1
   113    40    41    1
   114    40   116    1
   115    40   117    1
   116    41    42    1
   117    41   118    1
   118    41   119    1
   119    42    43    1
   120    42   120    1
   121    42   121    1
   122    43    44    1
   123    43   122    1
   124    43   123    1
   125    44    45    1
   126    44   124    1
   127    44   125    1
   128    45    46    1
   129    45   126    1
   130    45   127    1
   131    46    47    1
   132    46   128    1
   133    46   129    1
   134    47    48    1
   135    47   130    1
   136    47   131    1
   137    48    49    1
   138    48   132    1
   139    48   133    1
   140    49    50    1
   141    49   134    1
   142    49   135    1
   143    50   136    1
   144    50   137    1
   145    50   138    1
   146   139   140    1
   147   139   188    1
   148   139   189    1
   149   139   190    1
   150   140   141    1
   151   140   191    1
   152   140   192    1
   153   141   142    1
   154   141   193    1
   155   141   194    1
   156   142   143    1
   157   142   195    1
   158   142   196    1
   159   143   144    1
   160   143   197    1
   161   143   198    1
   162   144   145    1
   163   144   199    1
   164   144   200    1
   165   145   146    1
   166   145   201    1
   167   145   202    1
   168   146   147    1
   169   146   203    1
   170   146   204    1
   171   147   148    1
   172   147   205    1
   173   147   206    1
   174   148   149    1
   175   148   207    1
   176   148   208    1
   177   149   150    1
   178   149   209    1
   179   149   210    1
   180   150   151    1
   181   150   211    1
   182   150   212    1
   183   151   152    1
   184   151   160    1
   185   152   153    1
   186   152   213    1
   187   152   214    1
   188   153   154    1
   189   153   215    1
   190   153   216    1
   191   154   155    1
   192   154   217    1
   193   154   218    1
   194   155   156    1
   195   155   219    1
   196   155   220    1
   197   156   157    1
   198   156   221    1
   199   156   222    1
   200   157   158    1
   201   157   223    1
   202   157   224    1
   203   158   159    1
   204   158   225    1
   205   158   226    1
   206   159   227    1
   207   159   228    1
   208   159   229    1
   209   160   161    2
   210   160   162    1
   211   162   163    1
   212   162   230    1
   213   162   231    1
   214   163   164    1
   215   164   165    1
   216   164   232    1
   217   164   233    1
   218   165   166    2
   219   165   167    1
   220   167   168    1
   221   167   176    1
   222   168   169    1
   223   168   234    1
   224   168   235    1
   225   169   170    1
   226   169   236    1
   227   169   237    1
   228   170   171    1
   229   170   238    1
   230   170   239    1
   231   171   172    1
   232   171   240    1
   233   171   241    1
   234   172   173    1
   235   172   242    1
   236   172   243    1
   237   173   174    1
   238   173   244    1
   239   173   245    1
   240   174   175    1
   241   174   246    1
   242   174   247    1
   243   175   248    1
   244   175   249    1
   245   175   250    1
   246   176   177    1
   247   176   251    1
   248   176   252    1
   249   177   178    1
   250   177   253    1
   251   177   254    1
   252   178   179    1
   253   178   255    1
   254   178   256    1
   255   179   180    1
   256   179   257    1
   257   179   258    1
   258   180   181    1
   259   180   259    1
   260   180   260    1
   261   181   182    1
   262   181   261    1
   263   181   262    1
   264   182   183    1
   265   182   263    1
   266   182   264    1
   267   183   184    1
   268   183   265    1
   269   183   266    1
   270   184   185    1
   271   184   267    1
   272   184   268    1
   273   185   186    1
   274   185   269    1
   275   185   270    1
   276   186   187    1
   277   186   271    1
   278   186   272    1
   279   187   273    1
   280   187   274    1
   281   187   275    1
   282   276   277    1
   283   276   325    1
   284   276   326    1
   285   276   327    1
   286   277   278    1
   287   277   328    1
   288   277   329    1
   289   278   279    1
   290   278   330    1
   291   278   331    1
   292   279   280    1
   293   279   332    1
   294   279   333    1
   295   280   281    1
   296   280   334    1
   297   280   335    1
   298   281   282    1
   299   281   336    1
   300   281   337    1
   301   282   283    1
   302   282   338    1
   303   282   339    1
   304   283   284    1
   305   283   340    1
   306   283   341    1
   307   284   285    1
   308   284   342    1
   309   284   343    1
   310   285   286    1
   311   285   344    1
   312   285   345    1
   313   286   287    1
   314   286   346    1
   315   286   347    1
   316   287   288    1
   317   287   348    1
   318   287   349    1
   319   288   289    1
   320   288   297    1
   321   289   290    1
   322   289   350    1
   323   289   351    1
   324   290   291    1
   325   290   352    1
   326   290   353    1
   327   291   292    1
   328   291   354    1
   329   291   355    1
   330   292   293    1
   331   292   356    1
   332   292   357    1
   333   293   294    1
   334   293   358    1
   335   293   359    1
   336   294   295    1
   337   294   360    1
   338   294   361    1
   339   295   296    1
   340   295   362    1
   341   295   363    1
   342   296   364    1
   343   296   365    1
   344   296   366    1
   345   297   298    2
   346   297   299    1
   347   299   300    1
   348   299   367    1
   349   299   368    1
   350   300   301    1
   351   301   302    1
   352   301   369    1
   353   301   370    1
   354   302   303    2
   355   302   304    1
   356   304   305    1
   357   304   313    1
   358   305   306    1
   359   305   371    1
   360   305   372    1
   361   306   307    1
   362   306   373    1
   363   306   374    1
   364   307   308    1
   365   307   375    1
   366   307   376    1
   367   308   309    1
   368   308   377    1
   369   308   378    1
   370   309   310    1
   371   309   379    1
   372   309   380    1
   373   310   311    1
   374   310   381    1
   375   310   382    1
   376   311   312    1
   377   311   383    1
   378   311   384    1
   379   312   385    1
   380   312   386    1
   381   312   387    1
   382   313   314    1
   383   313   388    1
   384   313   389    1
   385   314   315    1
   386   314   390    1
   387   314   391    1
   388   315   316    1
   389   315   392    1
   390   315   393    1
   391   316   317    1
   392   316   394    1
   393   316   395    1
   394   317   318    1
   395   317   396    1
   396   317   397    1
   397   318   319    1
   398   318   398    1
   399   318   399    1
   400   319   320    1
   401   319   400    1
   402   319   401    1
   403   320   321    1
   404   320   402    1
   405   320   403    1
   406   321   322    1
   407   321   404    1
   408   321   405    1
   409   322   323    1
   410   322   406    1
   411   322   407    1
   412   323   324    1
   413   323   408    1
   414   323   409    1
   415   324   410    1
   416   324   411    1
   417   324   412    1
@<TRIPOS>SUBSTRUCTURE
     1 RES1      412 GROUP             0 ****  ****    0  
