@<TRIPOS>MOLECULE
am_c3_9H2O_c0_0_nunpairedes_0_charge_3 Charge: 3 Unpaired_Electrons: 2 XTB_Unpaired_Electrons: 0 XTB_Charge: 3
   256   267     1     0     0
SMALL
NoCharges
****
Generated from Architector

@<TRIPOS>ATOM
     1 Pr1      -0.1755    0.3880    0.0732   Pr        1 RES1   0.0000
     2 C1       -3.1664   -4.8939   -2.6339   C.3       1 RES1   0.0000
     3 C2       -3.6193   -3.8556   -1.6135   C.3       1 RES1   0.0000
     4 C3       -4.1270   -4.5164   -0.3143   C.3       1 RES1   0.0000
     5 C4       -3.2817   -4.2195    0.9291   C.3       1 RES1   0.0000
     6 C5       -1.8203   -4.5669    0.6724   C.3       1 RES1   0.0000
     7 C6       -0.9436   -4.7476    1.9073   C.3       1 RES1   0.0000
     8 C7        0.4297   -5.2613    1.4605   C.3       1 RES1   0.0000
     9 C8        1.3106   -4.1661    0.8648   C.3       1 RES1   0.0000
    10 N1        1.7038   -3.1314    1.8246   N.am      1 RES1   0.0000
    11 C9        2.1527   -3.6315    3.1088   C.3       1 RES1   0.0000
    12 C10       3.4777   -4.4026    3.0029   C.3       1 RES1   0.0000
    13 C11       4.5952   -3.6564    2.2589   C.3       1 RES1   0.0000
    14 C12       5.9923   -4.0463    2.7570   C.3       1 RES1   0.0000
    15 C13       6.5214   -3.1464    3.8750   C.3       1 RES1   0.0000
    16 C14       5.7902   -3.3101    5.2073   C.3       1 RES1   0.0000
    17 C15       6.4253   -2.4893    6.3281   C.3       1 RES1   0.0000
    18 C16       5.6881   -2.6915    7.6452   C.3       1 RES1   0.0000
    19 C17       1.6274   -1.8590    1.4337   C.2       1 RES1   0.0000
    20 O1        1.1555   -1.5661    0.3104   O.2       1 RES1   0.0000
    21 C18       2.0736   -0.6583    2.2666   C.ar      1 RES1   0.0000
    22 C19       2.9527   -0.6164    3.3663   C.ar      1 RES1   0.0000
    23 C20       3.2233    0.5883    3.9768   C.ar      1 RES1   0.0000
    24 C21       2.7182    1.7809    3.4417   C.ar      1 RES1   0.0000
    25 C22       3.0800    3.0668    3.9344   C.ar      1 RES1   0.0000
    26 C23       2.7639    4.1880    3.2436   C.ar      1 RES1   0.0000
    27 C24       1.9729    4.1232    2.0635   C.ar      1 RES1   0.0000
    28 C25       1.6257    5.2504    1.3011   C.ar      1 RES1   0.0000
    29 C26       0.7318    5.1336    0.2580   C.ar      1 RES1   0.0000
    30 C27       0.2165    3.8722   -0.0715   C.ar      1 RES1   0.0000
    31 C28      -0.8039    3.4879   -1.1236   C.2       1 RES1   0.0000
    32 O2       -1.0857    2.2647   -1.1383   O.2       1 RES1   0.0000
    33 N2       -1.4112    4.2805   -2.0169   N.am      1 RES1   0.0000
    34 C29      -1.2027    5.7033   -2.2618   C.3       1 RES1   0.0000
    35 C30      -2.0893    6.6581   -1.4385   C.3       1 RES1   0.0000
    36 C31      -3.3752    7.0960   -2.1388   C.3       1 RES1   0.0000
    37 C32      -4.2214    7.9638   -1.2080   C.3       1 RES1   0.0000
    38 C33      -5.5810    8.3489   -1.8023   C.3       1 RES1   0.0000
    39 C34      -6.6866    7.2998   -1.6486   C.3       1 RES1   0.0000
    40 C35      -7.1679    7.1440   -0.2061   C.3       1 RES1   0.0000
    41 C36      -8.3659    6.2084   -0.0823   C.3       1 RES1   0.0000
    42 C37      -2.1829    3.5533   -3.0323   C.3       1 RES1   0.0000
    43 C38      -3.6863    3.3660   -2.7843   C.3       1 RES1   0.0000
    44 C39      -4.1325    2.9146   -1.3831   C.3       1 RES1   0.0000
    45 C40      -4.7065    4.0604   -0.5498   C.3       1 RES1   0.0000
    46 C41      -5.6496    3.6083    0.5629   C.3       1 RES1   0.0000
    47 C42      -4.9846    3.0232    1.8014   C.3       1 RES1   0.0000
    48 C43      -5.9624    2.9465    2.9750   C.3       1 RES1   0.0000
    49 C44      -7.1642    2.0520    2.7033   C.3       1 RES1   0.0000
    50 N3        0.6267    2.7809    0.5843   N.ar      1 RES1   0.0000
    51 C45       1.4657    2.8766    1.6218   C.ar      1 RES1   0.0000
    52 C46       1.9056    1.6672    2.2904   C.ar      1 RES1   0.0000
    53 N4        1.5789    0.4767    1.7673   N.ar      1 RES1   0.0000
    54 H1       -2.7137   -4.4410   -3.5161   H         1 RES1   0.0000
    55 H2       -4.0183   -5.4867   -2.9494   H         1 RES1   0.0000
    56 H3       -2.4508   -5.5724   -2.1832   H         1 RES1   0.0000
    57 H4       -4.4153   -3.2610   -2.0668   H         1 RES1   0.0000
    58 H5       -2.7846   -3.1766   -1.4080   H         1 RES1   0.0000
    59 H6       -4.1406   -5.6023   -0.4426   H         1 RES1   0.0000
    60 H7       -5.1544   -4.2159   -0.1138   H         1 RES1   0.0000
    61 H8       -3.6610   -4.8318    1.7525   H         1 RES1   0.0000
    62 H9       -3.3681   -3.1691    1.2341   H         1 RES1   0.0000
    63 H10      -1.3665   -3.7967    0.0471   H         1 RES1   0.0000
    64 H11      -1.8054   -5.5044    0.1161   H         1 RES1   0.0000
    65 H12      -1.4082   -5.4777    2.5722   H         1 RES1   0.0000
    66 H13      -0.8329   -3.8077    2.4608   H         1 RES1   0.0000
    67 H14       0.2775   -6.0159    0.6879   H         1 RES1   0.0000
    68 H15       0.9407   -5.7704    2.2739   H         1 RES1   0.0000
    69 H16       0.7767   -3.6666    0.0569   H         1 RES1   0.0000
    70 H17       2.2084   -4.6225    0.4404   H         1 RES1   0.0000
    71 H18       1.3996   -4.3122    3.5147   H         1 RES1   0.0000
    72 H19       2.2239   -2.8092    3.8096   H         1 RES1   0.0000
    73 H20       3.2924   -5.3449    2.4859   H         1 RES1   0.0000
    74 H21       3.8046   -4.6580    4.0115   H         1 RES1   0.0000
    75 H22       4.4768   -2.5742    2.3463   H         1 RES1   0.0000
    76 H23       4.5226   -3.8926    1.1965   H         1 RES1   0.0000
    77 H24       6.6942   -4.0036    1.9229   H         1 RES1   0.0000
    78 H25       5.9760   -5.0787    3.1058   H         1 RES1   0.0000
    79 H26       6.4708   -2.1005    3.5564   H         1 RES1   0.0000
    80 H27       7.5738   -3.3869    4.0332   H         1 RES1   0.0000
    81 H28       5.8043   -4.3639    5.4940   H         1 RES1   0.0000
    82 H29       4.7431   -3.0058    5.1117   H         1 RES1   0.0000
    83 H30       6.4142   -1.4310    6.0543   H         1 RES1   0.0000
    84 H31       7.4665   -2.7885    6.4444   H         1 RES1   0.0000
    85 H32       4.6408   -2.4102    7.5499   H         1 RES1   0.0000
    86 H33       6.1338   -2.0912    8.4318   H         1 RES1   0.0000
    87 H34       5.7341   -3.7333    7.9486   H         1 RES1   0.0000
    88 H35       3.4772   -1.4851    3.7254   H         1 RES1   0.0000
    89 H36       3.8651    0.6188    4.8432   H         1 RES1   0.0000
    90 H37       3.6518    3.1220    4.8459   H         1 RES1   0.0000
    91 H38       3.1129    5.1527    3.5718   H         1 RES1   0.0000
    92 H39       2.0442    6.2121    1.5537   H         1 RES1   0.0000
    93 H40       0.4311    6.0191   -0.2683   H         1 RES1   0.0000
    94 H41      -1.4049    5.8921   -3.3187   H         1 RES1   0.0000
    95 H42      -0.1545    5.9458   -2.0888   H         1 RES1   0.0000
    96 H43      -1.5179    7.5624   -1.2189   H         1 RES1   0.0000
    97 H44      -2.3475    6.2032   -0.4824   H         1 RES1   0.0000
    98 H45      -3.9548    6.2275   -2.4388   H         1 RES1   0.0000
    99 H46      -3.1294    7.6643   -3.0378   H         1 RES1   0.0000
   100 H47      -3.6658    8.8772   -0.9918   H         1 RES1   0.0000
   101 H48      -4.3631    7.4380   -0.2620   H         1 RES1   0.0000
   102 H49      -5.4519    8.5774   -2.8634   H         1 RES1   0.0000
   103 H50      -5.9223    9.2608   -1.3091   H         1 RES1   0.0000
   104 H51      -6.3614    6.3310   -2.0413   H         1 RES1   0.0000
   105 H52      -7.5313    7.6259   -2.2550   H         1 RES1   0.0000
   106 H53      -7.4535    8.1225    0.1804   H         1 RES1   0.0000
   107 H54      -6.3501    6.7749    0.4175   H         1 RES1   0.0000
   108 H55      -9.2414    6.6415   -0.5577   H         1 RES1   0.0000
   109 H56      -8.6048    6.0395    0.9657   H         1 RES1   0.0000
   110 H57      -8.1632    5.2479   -0.5518   H         1 RES1   0.0000
   111 H58      -1.7194    2.5661   -3.1272   H         1 RES1   0.0000
   112 H59      -2.0719    4.0715   -3.9872   H         1 RES1   0.0000
   113 H60      -4.0053    2.6184   -3.5131   H         1 RES1   0.0000
   114 H61      -4.2072    4.2894   -3.0354   H         1 RES1   0.0000
   115 H62      -3.3131    2.4072   -0.8715   H         1 RES1   0.0000
   116 H63      -4.9316    2.1777   -1.5001   H         1 RES1   0.0000
   117 H64      -5.3122    4.6604   -1.2294   H         1 RES1   0.0000
   118 H65      -3.9112    4.6843   -0.1341   H         1 RES1   0.0000
   119 H66      -6.3617    2.8893    0.1566   H         1 RES1   0.0000
   120 H67      -6.2138    4.4811    0.8824   H         1 RES1   0.0000
   121 H68      -4.1532    3.6725    2.0953   H         1 RES1   0.0000
   122 H69      -4.6013    2.0196    1.5797   H         1 RES1   0.0000
   123 H70      -6.3130    3.9499    3.2129   H         1 RES1   0.0000
   124 H71      -5.4222    2.5884    3.8509   H         1 RES1   0.0000
   125 H72      -7.8755    2.5500    2.0542   H         1 RES1   0.0000
   126 H73      -7.6720    1.8096    3.6317   H         1 RES1   0.0000
   127 H74      -6.8605    1.1236    2.2257   H         1 RES1   0.0000
   128 C47       6.7415    1.8358    1.3311   C.3       1 RES1   0.0000
   129 C48       5.5385    2.7716    1.4529   C.3       1 RES1   0.0000
   130 C49       5.5943    3.9621    0.4799   C.3       1 RES1   0.0000
   131 C50       4.6171    3.8643   -0.6912   C.3       1 RES1   0.0000
   132 C51       4.8708    2.6201   -1.5307   C.3       1 RES1   0.0000
   133 C52       4.0887    2.5884   -2.8403   C.3       1 RES1   0.0000
   134 C53       4.3913    1.2875   -3.5924   C.3       1 RES1   0.0000
   135 C54       3.4473    0.1435   -3.2268   C.3       1 RES1   0.0000
   136 N5        2.0864    0.2671   -3.7676   N.am      1 RES1   0.0000
   137 C55       2.0279    0.5891   -5.1818   C.3       1 RES1   0.0000
   138 C56       2.7472   -0.4139   -6.0872   C.3       1 RES1   0.0000
   139 C57       2.2601   -1.8554   -5.8897   C.3       1 RES1   0.0000
   140 C58       2.2813   -2.6660   -7.1895   C.3       1 RES1   0.0000
   141 C59       0.9618   -2.6014   -7.9587   C.3       1 RES1   0.0000
   142 C60       0.6233   -1.2127   -8.4985   C.3       1 RES1   0.0000
   143 C61      -0.6265   -1.2188   -9.3756   C.3       1 RES1   0.0000
   144 C62      -0.9434    0.1768   -9.8973   C.3       1 RES1   0.0000
   145 C63       1.0657    0.2481   -2.9042   C.2       1 RES1   0.0000
   146 O3        1.2875    0.4723   -1.6912   O.2       1 RES1   0.0000
   147 C64      -0.3902   -0.0707   -3.2438   C.ar      1 RES1   0.0000
   148 C65      -1.0162   -0.2078   -4.4973   C.ar      1 RES1   0.0000
   149 C66      -2.3897   -0.2774   -4.5675   C.ar      1 RES1   0.0000
   150 C67      -3.1636   -0.2810   -3.3989   C.ar      1 RES1   0.0000
   151 C68      -4.5886   -0.2324   -3.3853   C.ar      1 RES1   0.0000
   152 C69      -5.2885   -0.3101   -2.2268   C.ar      1 RES1   0.0000
   153 C70      -4.6167   -0.4654   -0.9806   C.ar      1 RES1   0.0000
   154 C71      -5.2767   -0.5967    0.2525   C.ar      1 RES1   0.0000
   155 C72      -4.5556   -0.7146    1.4218   C.ar      1 RES1   0.0000
   156 C73      -3.1547   -0.6683    1.3692   C.ar      1 RES1   0.0000
   157 C74      -2.1355   -0.6148    2.4851   C.2       1 RES1   0.0000
   158 O4       -0.9487   -0.5903    2.0944   O.2       1 RES1   0.0000
   159 N6       -2.4045   -0.4771    3.7949   N.am      1 RES1   0.0000
   160 C75      -3.5727   -1.0510    4.4739   C.3       1 RES1   0.0000
   161 C76      -4.7672   -0.1486    4.8240   C.3       1 RES1   0.0000
   162 C77      -4.5563    0.7394    6.0497   C.3       1 RES1   0.0000
   163 C78      -5.8654    1.3431    6.5524   C.3       1 RES1   0.0000
   164 C79      -5.6802    2.2409    7.7803   C.3       1 RES1   0.0000
   165 C80      -4.7980    3.4822    7.6062   C.3       1 RES1   0.0000
   166 C81      -5.2676    4.4313    6.5034   C.3       1 RES1   0.0000
   167 C82      -4.6187    5.8104    6.5950   C.3       1 RES1   0.0000
   168 C83      -1.2186   -0.2412    4.6402   C.3       1 RES1   0.0000
   169 C84      -1.1855    1.0358    5.4908   C.3       1 RES1   0.0000
   170 C85      -0.9021    2.3936    4.8067   C.3       1 RES1   0.0000
   171 C86      -2.1563    3.2618    4.6624   C.3       1 RES1   0.0000
   172 C87      -1.9504    4.7190    4.2401   C.3       1 RES1   0.0000
   173 C88      -1.4359    4.9516    2.8232   C.3       1 RES1   0.0000
   174 C89      -1.6875    6.3783    2.3286   C.3       1 RES1   0.0000
   175 C90      -0.9306    7.4639    3.0764   C.3       1 RES1   0.0000
   176 N7       -2.5218   -0.5484    0.1981   N.ar      1 RES1   0.0000
   177 C91      -3.1992   -0.4676   -0.9483   C.ar      1 RES1   0.0000
   178 C92      -2.4498   -0.3385   -2.1824   C.ar      1 RES1   0.0000
   179 N8       -1.1142   -0.2125   -2.1302   N.ar      1 RES1   0.0000
   180 H75       6.6900    1.0439    2.0802   H         1 RES1   0.0000
   181 H76       7.6604    2.3949    1.4982   H         1 RES1   0.0000
   182 H77       6.7916    1.3744    0.3465   H         1 RES1   0.0000
   183 H78       4.6141    2.2036    1.2934   H         1 RES1   0.0000
   184 H79       5.5186    3.1469    2.4793   H         1 RES1   0.0000
   185 H80       6.6046    4.0430    0.0781   H         1 RES1   0.0000
   186 H81       5.3922    4.8833    1.0275   H         1 RES1   0.0000
   187 H82       4.7437    4.7485   -1.3192   H         1 RES1   0.0000
   188 H83       3.5845    3.8589   -0.3250   H         1 RES1   0.0000
   189 H84       4.6212    1.7315   -0.9497   H         1 RES1   0.0000
   190 H85       5.9349    2.5825   -1.7703   H         1 RES1   0.0000
   191 H86       4.3932    3.4415   -3.4493   H         1 RES1   0.0000
   192 H87       3.0115    2.6734   -2.6550   H         1 RES1   0.0000
   193 H88       5.4034    0.9641   -3.3419   H         1 RES1   0.0000
   194 H89       4.3760    1.4529   -4.6671   H         1 RES1   0.0000
   195 H90       3.3668    0.0583   -2.1428   H         1 RES1   0.0000
   196 H91       3.8589   -0.7969   -3.6089   H         1 RES1   0.0000
   197 H92       2.4775    1.5804   -5.3278   H         1 RES1   0.0000
   198 H93       0.9914    0.6834   -5.4784   H         1 RES1   0.0000
   199 H94       3.8230   -0.3677   -5.9157   H         1 RES1   0.0000
   200 H95       2.5785   -0.0946   -7.1167   H         1 RES1   0.0000
   201 H96       1.2458   -1.8575   -5.4810   H         1 RES1   0.0000
   202 H97       2.8969   -2.3449   -5.1521   H         1 RES1   0.0000
   203 H98       2.4946   -3.7100   -6.9567   H         1 RES1   0.0000
   204 H99       3.0906   -2.3060   -7.8258   H         1 RES1   0.0000
   205 H100      0.1481   -2.9457   -7.3132   H         1 RES1   0.0000
   206 H101      1.0237   -3.2907   -8.8010   H         1 RES1   0.0000
   207 H102      1.4623   -0.8385   -9.0889   H         1 RES1   0.0000
   208 H103      0.4584   -0.5130   -7.6735   H         1 RES1   0.0000
   209 H104     -1.4717   -1.6012   -8.7981   H         1 RES1   0.0000
   210 H105     -0.4697   -1.8944  -10.2158   H         1 RES1   0.0000
   211 H106     -1.0964    0.8729   -9.0737   H         1 RES1   0.0000
   212 H107     -1.8412    0.1646  -10.5074   H         1 RES1   0.0000
   213 H108     -0.1244    0.5474  -10.5074   H         1 RES1   0.0000
   214 H109     -0.4628   -0.2606   -5.4183   H         1 RES1   0.0000
   215 H110     -2.8707   -0.3390   -5.5281   H         1 RES1   0.0000
   216 H111     -5.1059   -0.1343   -4.3257   H         1 RES1   0.0000
   217 H112     -6.3680   -0.2738   -2.2348   H         1 RES1   0.0000
   218 H113     -6.3565   -0.5856    0.2931   H         1 RES1   0.0000
   219 H114     -5.0836   -0.8381    2.3498   H         1 RES1   0.0000
   220 H115     -3.2115   -1.4664    5.4189   H         1 RES1   0.0000
   221 H116     -3.9340   -1.8882    3.8718   H         1 RES1   0.0000
   222 H117     -5.6002   -0.8205    5.0480   H         1 RES1   0.0000
   223 H118     -5.0665    0.4778    3.9850   H         1 RES1   0.0000
   224 H119     -3.8967    1.5605    5.7875   H         1 RES1   0.0000
   225 H120     -4.1015    0.1596    6.8568   H         1 RES1   0.0000
   226 H121     -6.5471    0.5348    6.8264   H         1 RES1   0.0000
   227 H122     -6.3321    1.9101    5.7458   H         1 RES1   0.0000
   228 H123     -5.2630    1.6400    8.5913   H         1 RES1   0.0000
   229 H124     -6.6731    2.5695    8.0908   H         1 RES1   0.0000
   230 H125     -3.7576    3.1915    7.4315   H         1 RES1   0.0000
   231 H126     -4.8163    4.0195    8.5548   H         1 RES1   0.0000
   232 H127     -6.3485    4.5540    6.5752   H         1 RES1   0.0000
   233 H128     -5.0467    4.0028    5.5237   H         1 RES1   0.0000
   234 H129     -4.9691    6.3417    7.4753   H         1 RES1   0.0000
   235 H130     -4.8733    6.4101    5.7214   H         1 RES1   0.0000
   236 H131     -3.5349    5.7322    6.6594   H         1 RES1   0.0000
   237 H132     -0.3508   -0.2492    3.9783   H         1 RES1   0.0000
   238 H133     -1.1213   -1.0869    5.3282   H         1 RES1   0.0000
   239 H134     -0.3886    0.8558    6.2140   H         1 RES1   0.0000
   240 H135     -2.1051    1.1039    6.0625   H         1 RES1   0.0000
   241 H136     -0.3780    2.2374    3.8562   H         1 RES1   0.0000
   242 H137     -0.2175    2.9468    5.4544   H         1 RES1   0.0000
   243 H138     -2.6008    3.3142    5.6556   H         1 RES1   0.0000
   244 H139     -2.8854    2.7931    3.9972   H         1 RES1   0.0000
   245 H140     -1.2719    5.2069    4.9394   H         1 RES1   0.0000
   246 H141     -2.9202    5.2104    4.3330   H         1 RES1   0.0000
   247 H142     -1.9505    4.2907    2.1200   H         1 RES1   0.0000
   248 H143     -0.3689    4.7284    2.7824   H         1 RES1   0.0000
   249 H144     -2.7568    6.5885    2.3907   H         1 RES1   0.0000
   250 H145     -1.3932    6.4211    1.2784   H         1 RES1   0.0000
   251 H146     -1.2974    7.5732    4.0920   H         1 RES1   0.0000
   252 H147     -1.0635    8.4137    2.5634   H         1 RES1   0.0000
   253 H148      0.1330    7.2382    3.1041   H         1 RES1   0.0000
   254 O5       -1.8504    1.9155    1.5714   O.3       1 RES1   0.0000
   255 H149     -1.7752    2.1278    2.5182   H         1 RES1   0.0000
   256 H150     -2.6291    2.3989    1.2518   H         1 RES1   0.0000
@<TRIPOS>BOND
     1     1    20    1
     2     1    32    1
     3     1    50    1
     4     1    53    1
     5     1   146    1
     6     1   158    1
     7     1   176    1
     8     1   179    1
     9     1   254    1
    10     2     3    1
    11     2    54    1
    12     2    55    1
    13     2    56    1
    14     3     4    1
    15     3    57    1
    16     3    58    1
    17     4     5    1
    18     4    59    1
    19     4    60    1
    20     5     6    1
    21     5    61    1
    22     5    62    1
    23     6     7    1
    24     6    63    1
    25     6    64    1
    26     7     8    1
    27     7    65    1
    28     7    66    1
    29     8     9    1
    30     8    67    1
    31     8    68    1
    32     9    10    1
    33     9    69    1
    34     9    70    1
    35    10    11    1
    36    10    19    1
    37    11    12    1
    38    11    71    1
    39    11    72    1
    40    12    13    1
    41    12    73    1
    42    12    74    1
    43    13    14    1
    44    13    75    1
    45    13    76    1
    46    14    15    1
    47    14    77    1
    48    14    78    1
    49    15    16    1
    50    15    79    1
    51    15    80    1
    52    16    17    1
    53    16    81    1
    54    16    82    1
    55    17    18    1
    56    17    83    1
    57    17    84    1
    58    18    85    1
    59    18    86    1
    60    18    87    1
    61    19    20    2
    62    19    21    1
    63    21    22    1
    64    21    53    2
    65    22    23    2
    66    22    88    1
    67    23    24    1
    68    23    89    1
    69    24    25    1
    70    24    52    2
    71    25    26    2
    72    25    90    1
    73    26    27    1
    74    26    91    1
    75    27    28    1
    76    27    51    2
    77    28    29    2
    78    28    92    1
    79    29    30    1
    80    29    93    1
    81    30    31    1
    82    30    50    2
    83    31    32    2
    84    31    33    1
    85    33    34    1
    86    33    42    1
    87    34    35    1
    88    34    94    1
    89    34    95    1
    90    35    36    1
    91    35    96    1
    92    35    97    1
    93    36    37    1
    94    36    98    1
    95    36    99    1
    96    37    38    1
    97    37   100    1
    98    37   101    1
    99    38    39    1
   100    38   102    1
   101    38   103    1
   102    39    40    1
   103    39   104    1
   104    39   105    1
   105    40    41    1
   106    40   106    1
   107    40   107    1
   108    41   108    1
   109    41   109    1
   110    41   110    1
   111    42    43    1
   112    42   111    1
   113    42   112    1
   114    43    44    1
   115    43   113    1
   116    43   114    1
   117    44    45    1
   118    44   115    1
   119    44   116    1
   120    45    46    1
   121    45   117    1
   122    45   118    1
   123    46    47    1
   124    46   119    1
   125    46   120    1
   126    47    48    1
   127    47   121    1
   128    47   122    1
   129    48    49    1
   130    48   123    1
   131    48   124    1
   132    49   125    1
   133    49   126    1
   134    49   127    1
   135    50    51    1
   136    51    52    1
   137    52    53    1
   138   128   129    1
   139   128   180    1
   140   128   181    1
   141   128   182    1
   142   129   130    1
   143   129   183    1
   144   129   184    1
   145   130   131    1
   146   130   185    1
   147   130   186    1
   148   131   132    1
   149   131   187    1
   150   131   188    1
   151   132   133    1
   152   132   189    1
   153   132   190    1
   154   133   134    1
   155   133   191    1
   156   133   192    1
   157   134   135    1
   158   134   193    1
   159   134   194    1
   160   135   136    1
   161   135   195    1
   162   135   196    1
   163   136   137    1
   164   136   145    1
   165   137   138    1
   166   137   197    1
   167   137   198    1
   168   138   139    1
   169   138   199    1
   170   138   200    1
   171   139   140    1
   172   139   201    1
   173   139   202    1
   174   140   141    1
   175   140   203    1
   176   140   204    1
   177   141   142    1
   178   141   205    1
   179   141   206    1
   180   142   143    1
   181   142   207    1
   182   142   208    1
   183   143   144    1
   184   143   209    1
   185   143   210    1
   186   144   211    1
   187   144   212    1
   188   144   213    1
   189   145   146    2
   190   145   147    1
   191   147   148    1
   192   147   179    2
   193   148   149    2
   194   148   214    1
   195   149   150    1
   196   149   215    1
   197   150   151    1
   198   150   178    2
   199   151   152    2
   200   151   216    1
   201   152   153    1
   202   152   217    1
   203   153   154    1
   204   153   177    2
   205   154   155    2
   206   154   218    1
   207   155   156    1
   208   155   219    1
   209   156   157    1
   210   156   176    2
   211   157   158    2
   212   157   159    1
   213   159   160    1
   214   159   168    1
   215   160   161    1
   216   160   220    1
   217   160   221    1
   218   161   162    1
   219   161   222    1
   220   161   223    1
   221   162   163    1
   222   162   224    1
   223   162   225    1
   224   163   164    1
   225   163   226    1
   226   163   227    1
   227   164   165    1
   228   164   228    1
   229   164   229    1
   230   165   166    1
   231   165   230    1
   232   165   231    1
   233   166   167    1
   234   166   232    1
   235   166   233    1
   236   167   234    1
   237   167   235    1
   238   167   236    1
   239   168   169    1
   240   168   237    1
   241   168   238    1
   242   169   170    1
   243   169   239    1
   244   169   240    1
   245   170   171    1
   246   170   241    1
   247   170   242    1
   248   171   172    1
   249   171   243    1
   250   171   244    1
   251   172   173    1
   252   172   245    1
   253   172   246    1
   254   173   174    1
   255   173   247    1
   256   173   248    1
   257   174   175    1
   258   174   249    1
   259   174   250    1
   260   175   251    1
   261   175   252    1
   262   175   253    1
   263   176   177    1
   264   177   178    1
   265   178   179    1
   266   254   255    1
   267   254   256    1
@<TRIPOS>SUBSTRUCTURE
     1 RES1      256 GROUP             0 ****  ****    0  
