@<TRIPOS>MOLECULE
cn9_YICLED_0_nunpairedes_0_charge_3 Charge: 3 Unpaired_Electrons: 2 XTB_Unpaired_Electrons: 0 XTB_Charge: 3
   412   417     1     0     0
SMALL
NoCharges
****
Generated from Architector

@<TRIPOS>ATOM
     1 Pr1       0.4588   -0.1426   -0.4696   Pr        1 RES1   0.0000
     2 C1        7.0625   -4.0576    3.4411   C.3       1 RES1   0.0000
     3 C2        5.9230   -3.6760    2.4948   C.3       1 RES1   0.0000
     4 C3        4.6862   -4.5356    2.7517   C.3       1 RES1   0.0000
     5 C4        3.5418   -4.3879    1.7412   C.3       1 RES1   0.0000
     6 C5        2.6275   -5.6039    1.8914   C.3       1 RES1   0.0000
     7 C6        1.3975   -5.7110    0.9732   C.3       1 RES1   0.0000
     8 C7        0.4622   -4.4865    1.0401   C.3       1 RES1   0.0000
     9 C8       -1.0274   -4.8426    0.8976   C.3       1 RES1   0.0000
    10 N1       -2.0410   -3.7941    1.2490   N.am      1 RES1   0.0000
    11 C9       -3.3136   -4.2587    1.8844   C.3       1 RES1   0.0000
    12 C10      -4.1760   -3.8294    3.2168   C.3       1 RES1   0.0000
    13 C11      -4.0858   -2.9372    4.5218   C.3       1 RES1   0.0000
    14 C12      -3.5570   -3.4565    5.8933   C.3       1 RES1   0.0000
    15 C13      -2.6838   -2.4272    6.6795   C.3       1 RES1   0.0000
    16 C14      -3.5869   -1.5967    7.5922   C.3       1 RES1   0.0000
    17 C15      -1.5362   -3.0591    7.5045   C.3       1 RES1   0.0000
    18 C16      -0.3823   -2.1022    7.8883   C.3       1 RES1   0.0000
    19 C17       0.7834   -2.8420    8.5860   C.3       1 RES1   0.0000
    20 C18       2.2404   -2.5107    8.1726   C.3       1 RES1   0.0000
    21 C19       2.5699   -1.0271    8.0062   C.3       1 RES1   0.0000
    22 C20       2.6841   -3.2741    6.9215   C.3       1 RES1   0.0000
    23 C21      -1.9046   -2.6673    0.5422   C.2       1 RES1   0.0000
    24 O1       -0.7920   -2.2408    0.1668   O.2       1 RES1   0.0000
    25 C22      -3.0952   -1.8459    0.0291   C.3       1 RES1   0.0000
    26 O2       -2.5985   -1.0759   -1.0642   O.3       1 RES1   0.0000
    27 C23      -2.6008   -1.8215   -2.2830   C.3       1 RES1   0.0000
    28 C24      -1.3891   -1.4470   -3.1367   C.2       1 RES1   0.0000
    29 O3       -0.4937   -0.7387   -2.6115   O.2       1 RES1   0.0000
    30 N2       -1.3408   -1.9014   -4.3864   N.am      1 RES1   0.0000
    31 C25      -2.4936   -2.6244   -4.9533   C.3       1 RES1   0.0000
    32 C26      -2.5392   -2.9103   -6.4668   C.3       1 RES1   0.0000
    33 C27      -2.2064   -4.3739   -6.8028   C.3       1 RES1   0.0000
    34 C28      -1.8710   -4.5841   -8.2866   C.3       1 RES1   0.0000
    35 C29      -0.9927   -5.8108   -8.5654   C.3       1 RES1   0.0000
    36 C30       0.4333   -5.6269   -8.0457   C.3       1 RES1   0.0000
    37 C31       1.3946   -6.7036   -8.5407   C.3       1 RES1   0.0000
    38 C32       2.8147   -6.4367   -8.0542   C.3       1 RES1   0.0000
    39 C33      -0.2458   -1.4321   -5.2358   C.3       1 RES1   0.0000
    40 C34       0.5676   -2.4703   -6.0138   C.3       1 RES1   0.0000
    41 C35       1.5704   -3.3441   -5.2539   C.3       1 RES1   0.0000
    42 C36       1.0053   -4.0646   -4.0282   C.3       1 RES1   0.0000
    43 C37       1.8978   -5.2235   -3.5466   C.3       1 RES1   0.0000
    44 C38       1.0546   -6.2600   -2.8040   C.3       1 RES1   0.0000
    45 C39       3.0592   -4.7503   -2.6625   C.3       1 RES1   0.0000
    46 C40       4.2652   -5.6927   -2.7042   C.3       1 RES1   0.0000
    47 C41       5.2929   -5.3469   -1.6223   C.3       1 RES1   0.0000
    48 C42       6.6718   -5.9844   -1.8604   C.3       1 RES1   0.0000
    49 C43       6.7127   -7.4014   -1.2966   C.3       1 RES1   0.0000
    50 C44       7.7947   -5.1572   -1.2393   C.3       1 RES1   0.0000
    51 H1        7.9617   -3.4843    3.2193   H         1 RES1   0.0000
    52 H2        7.3037   -5.1144    3.3418   H         1 RES1   0.0000
    53 H3        6.7867   -3.8720    4.4776   H         1 RES1   0.0000
    54 H4        6.2618   -3.8184    1.4657   H         1 RES1   0.0000
    55 H5        5.6953   -2.6125    2.6296   H         1 RES1   0.0000
    56 H6        4.3113   -4.3233    3.7546   H         1 RES1   0.0000
    57 H7        5.0104   -5.5782    2.7429   H         1 RES1   0.0000
    58 H8        3.9403   -4.3404    0.7277   H         1 RES1   0.0000
    59 H9        2.9770   -3.4718    1.9221   H         1 RES1   0.0000
    60 H10       2.3087   -5.6355    2.9315   H         1 RES1   0.0000
    61 H11       3.2354   -6.4946    1.7271   H         1 RES1   0.0000
    62 H12       0.8557   -6.6116    1.2690   H         1 RES1   0.0000
    63 H13       1.7417   -5.8813   -0.0461   H         1 RES1   0.0000
    64 H14       0.7805   -3.7831    0.2703   H         1 RES1   0.0000
    65 H15       0.5843   -4.0221    2.0102   H         1 RES1   0.0000
    66 H16      -1.2195   -5.7099    1.5213   H         1 RES1   0.0000
    67 H17      -1.2396   -5.1243   -0.1387   H         1 RES1   0.0000
    68 H18      -3.1411   -5.3220    2.0313   H         1 RES1   0.0000
    69 H19      -4.0788   -4.1743    1.1066   H         1 RES1   0.0000
    70 H20      -4.4490   -4.8100    3.6065   H         1 RES1   0.0000
    71 H21      -5.0746   -3.4169    2.7574   H         1 RES1   0.0000
    72 H22      -5.1446   -2.7356    4.6992   H         1 RES1   0.0000
    73 H23      -3.6568   -1.9642    4.3419   H         1 RES1   0.0000
    74 H24      -3.0580   -4.4153    5.7843   H         1 RES1   0.0000
    75 H25      -4.4277   -3.6791    6.5125   H         1 RES1   0.0000
    76 H26      -2.2245   -1.7520    5.9541   H         1 RES1   0.0000
    77 H27      -4.0455   -2.2305    8.3454   H         1 RES1   0.0000
    78 H28      -4.3771   -1.1116    7.0257   H         1 RES1   0.0000
    79 H29      -3.0307   -0.8189    8.1091   H         1 RES1   0.0000
    80 H30      -1.0893   -3.8768    6.9401   H         1 RES1   0.0000
    81 H31      -1.9539   -3.4961    8.4100   H         1 RES1   0.0000
    82 H32      -0.7362   -1.3147    8.5567   H         1 RES1   0.0000
    83 H33      -0.0026   -1.6029    6.9944   H         1 RES1   0.0000
    84 H34       0.6565   -3.9137    8.4248   H         1 RES1   0.0000
    85 H35       0.7024   -2.6741    9.6596   H         1 RES1   0.0000
    86 H36       2.8637   -2.8760    8.9942   H         1 RES1   0.0000
    87 H37       2.3677   -0.4706    8.9164   H         1 RES1   0.0000
    88 H38       2.0074   -0.5788    7.1903   H         1 RES1   0.0000
    89 H39       3.6276   -0.9225    7.7696   H         1 RES1   0.0000
    90 H40       2.1527   -2.9311    6.0368   H         1 RES1   0.0000
    91 H41       2.5122   -4.3416    7.0404   H         1 RES1   0.0000
    92 H42       3.7492   -3.1217    6.7547   H         1 RES1   0.0000
    93 H43      -3.4916   -1.1447    0.7594   H         1 RES1   0.0000
    94 H44      -3.9065   -2.5013   -0.2993   H         1 RES1   0.0000
    95 H45      -3.5427   -1.6132   -2.8119   H         1 RES1   0.0000
    96 H46      -2.5535   -2.9004   -2.0813   H         1 RES1   0.0000
    97 H47      -3.3832   -2.0398   -4.7101   H         1 RES1   0.0000
    98 H48      -2.5771   -3.5827   -4.4317   H         1 RES1   0.0000
    99 H49      -1.8967   -2.2290   -7.0207   H         1 RES1   0.0000
   100 H50      -3.5555   -2.7060   -6.8070   H         1 RES1   0.0000
   101 H51      -3.0622   -4.9973   -6.5374   H         1 RES1   0.0000
   102 H52      -1.3669   -4.7005   -6.1879   H         1 RES1   0.0000
   103 H53      -1.3359   -3.7113   -8.6700   H         1 RES1   0.0000
   104 H54      -2.7972   -4.6683   -8.8566   H         1 RES1   0.0000
   105 H55      -0.9467   -5.9441   -9.6484   H         1 RES1   0.0000
   106 H56      -1.4372   -6.7142   -8.1416   H         1 RES1   0.0000
   107 H57       0.4387   -5.6251   -6.9528   H         1 RES1   0.0000
   108 H58       0.8039   -4.6563   -8.3866   H         1 RES1   0.0000
   109 H59       1.3881   -6.7185   -9.6314   H         1 RES1   0.0000
   110 H60       1.0637   -7.6836   -8.1940   H         1 RES1   0.0000
   111 H61       3.1629   -5.4690   -8.4139   H         1 RES1   0.0000
   112 H62       3.4937   -7.2020   -8.4189   H         1 RES1   0.0000
   113 H63       2.8575   -6.4388   -6.9650   H         1 RES1   0.0000
   114 H64       0.4068   -0.8584   -4.5792   H         1 RES1   0.0000
   115 H65      -0.6917   -0.7372   -5.9533   H         1 RES1   0.0000
   116 H66       1.1351   -1.8977   -6.7470   H         1 RES1   0.0000
   117 H67      -0.0840   -3.1244   -6.5769   H         1 RES1   0.0000
   118 H68       2.4470   -2.7510   -4.9940   H         1 RES1   0.0000
   119 H69       1.9201   -4.0977   -5.9631   H         1 RES1   0.0000
   120 H70       0.0338   -4.4807   -4.3023   H         1 RES1   0.0000
   121 H71       0.8436   -3.3620   -3.2044   H         1 RES1   0.0000
   122 H72       2.3240   -5.7063   -4.4295   H         1 RES1   0.0000
   123 H73       0.4802   -5.7828   -2.0111   H         1 RES1   0.0000
   124 H74       1.6880   -7.0217   -2.3574   H         1 RES1   0.0000
   125 H75       0.3647   -6.7613   -3.4789   H         1 RES1   0.0000
   126 H76       2.7038   -4.6317   -1.6369   H         1 RES1   0.0000
   127 H77       3.4056   -3.7700   -2.9910   H         1 RES1   0.0000
   128 H78       4.7326   -5.5943   -3.6856   H         1 RES1   0.0000
   129 H79       3.9474   -6.7307   -2.5996   H         1 RES1   0.0000
   130 H80       4.9134   -5.6799   -0.6531   H         1 RES1   0.0000
   131 H81       5.3959   -4.2572   -1.5895   H         1 RES1   0.0000
   132 H82       6.8470   -6.0333   -2.9394   H         1 RES1   0.0000
   133 H83       6.6620   -7.3763   -0.2099   H         1 RES1   0.0000
   134 H84       7.6369   -7.8935   -1.5830   H         1 RES1   0.0000
   135 H85       5.8857   -7.9987   -1.6703   H         1 RES1   0.0000
   136 H86       7.6625   -5.0718   -0.1645   H         1 RES1   0.0000
   137 H87       7.8441   -4.1582   -1.6661   H         1 RES1   0.0000
   138 H88       8.7486   -5.6387   -1.4244   H         1 RES1   0.0000
   139 C45      10.4752    1.4798    4.3699   C.3       1 RES1   0.0000
   140 C46       9.6913    1.2719    3.0825   C.3       1 RES1   0.0000
   141 C47       9.3815    2.5863    2.3701   C.3       1 RES1   0.0000
   142 C48       8.6074    2.3405    1.0726   C.3       1 RES1   0.0000
   143 C49       7.9243    3.6134    0.5791   C.3       1 RES1   0.0000
   144 C50       7.1265    3.4112   -0.7113   C.3       1 RES1   0.0000
   145 C51       6.0688    2.2984   -0.6004   C.3       1 RES1   0.0000
   146 C52       4.7485    2.5358   -1.3540   C.3       1 RES1   0.0000
   147 N3        3.5926    3.1385   -0.6625   N.am      1 RES1   0.0000
   148 C53       3.7974    4.4676   -0.0982   C.3       1 RES1   0.0000
   149 C54       3.6744    4.5730    1.4354   C.3       1 RES1   0.0000
   150 C55       4.3558    3.4567    2.2399   C.3       1 RES1   0.0000
   151 C56       5.1740    3.9039    3.4527   C.3       1 RES1   0.0000
   152 C57       4.3615    4.6155    4.5503   C.3       1 RES1   0.0000
   153 C58       4.4993    3.8804    5.8840   C.3       1 RES1   0.0000
   154 C59       4.7848    6.0871    4.6806   C.3       1 RES1   0.0000
   155 C60       3.6639    6.9764    5.2257   C.3       1 RES1   0.0000
   156 C61       2.5202    7.1948    4.2214   C.3       1 RES1   0.0000
   157 C62       2.5871    8.5173    3.4425   C.3       1 RES1   0.0000
   158 C63       1.3431    8.6521    2.5604   C.3       1 RES1   0.0000
   159 C64       3.8424    8.6200    2.5765   C.3       1 RES1   0.0000
   160 C65       2.3923    2.5650   -0.8080   C.2       1 RES1   0.0000
   161 O4        2.2465    1.3584   -1.1041   O.2       1 RES1   0.0000
   162 C66       1.1156    3.4049   -0.6631   C.3       1 RES1   0.0000
   163 O5        0.0615    2.7110   -1.3529   O.3       1 RES1   0.0000
   164 C67      -1.2700    2.9755   -0.9348   C.3       1 RES1   0.0000
   165 C68      -1.5471    2.0226    0.2554   C.2       1 RES1   0.0000
   166 O6       -0.5117    1.4173    0.5959   O.2       1 RES1   0.0000
   167 N4       -2.6859    1.8133    0.9035   N.am      1 RES1   0.0000
   168 C69      -2.7355    0.9058    2.0911   C.3       1 RES1   0.0000
   169 C70      -1.5537   -0.0603    2.2824   C.3       1 RES1   0.0000
   170 C71      -1.7254   -1.2614    3.2209   C.3       1 RES1   0.0000
   171 C72      -0.3451   -1.9161    3.3557   C.3       1 RES1   0.0000
   172 C73      -0.0742   -3.1344    4.2674   C.3       1 RES1   0.0000
   173 C74      -0.9297   -4.4097    4.1750   C.3       1 RES1   0.0000
   174 C75      -0.0925   -5.6911    4.1804   C.3       1 RES1   0.0000
   175 C76      -0.8676   -6.9905    4.3550   C.3       1 RES1   0.0000
   176 C77      -4.0344    2.3397    0.6393   C.3       1 RES1   0.0000
   177 C78      -4.3395    3.2880   -0.5197   C.3       1 RES1   0.0000
   178 C79      -5.8301    3.1449   -0.9120   C.3       1 RES1   0.0000
   179 C80      -5.9531    2.3777   -2.2311   C.3       1 RES1   0.0000
   180 C81      -7.3252    1.7364   -2.4883   C.3       1 RES1   0.0000
   181 C82      -8.2706    2.7308   -3.1640   C.3       1 RES1   0.0000
   182 C83      -7.1652    0.4744   -3.3511   C.3       1 RES1   0.0000
   183 C84      -6.2748   -0.5999   -2.7148   C.3       1 RES1   0.0000
   184 C85      -6.5241   -2.0119   -3.2739   C.3       1 RES1   0.0000
   185 C86      -7.3207   -2.9160   -2.3233   C.3       1 RES1   0.0000
   186 C87      -7.2731   -4.3665   -2.7950   C.3       1 RES1   0.0000
   187 C88      -8.7708   -2.4556   -2.2235   C.3       1 RES1   0.0000
   188 H89      10.6210    0.5304    4.8770   H         1 RES1   0.0000
   189 H90       9.9449    2.1585    5.0331   H         1 RES1   0.0000
   190 H91      11.4531    1.9033    4.1614   H         1 RES1   0.0000
   191 H92       8.7487    0.7602    3.3043   H         1 RES1   0.0000
   192 H93      10.2631    0.6309    2.4110   H         1 RES1   0.0000
   193 H94      10.3103    3.1162    2.1526   H         1 RES1   0.0000
   194 H95       8.7849    3.2169    3.0370   H         1 RES1   0.0000
   195 H96       7.8607    1.5644    1.2692   H         1 RES1   0.0000
   196 H97       9.2798    1.9597    0.3000   H         1 RES1   0.0000
   197 H98       8.6851    4.3765    0.4078   H         1 RES1   0.0000
   198 H99       7.2706    3.9838    1.3720   H         1 RES1   0.0000
   199 H100      7.8195    3.1479   -1.5132   H         1 RES1   0.0000
   200 H101      6.6708    4.3629   -0.9804   H         1 RES1   0.0000
   201 H102      5.8610    2.0812    0.4421   H         1 RES1   0.0000
   202 H103      6.5358    1.4006   -1.0103   H         1 RES1   0.0000
   203 H104      4.3672    1.5862   -1.7292   H         1 RES1   0.0000
   204 H105      4.9750    3.1815   -2.2111   H         1 RES1   0.0000
   205 H106      3.0897    5.1721   -0.5442   H         1 RES1   0.0000
   206 H107      4.7950    4.7801   -0.3957   H         1 RES1   0.0000
   207 H108      2.6152    4.6288    1.6835   H         1 RES1   0.0000
   208 H109      4.1234    5.5270    1.7107   H         1 RES1   0.0000
   209 H110      5.0405    2.9395    1.5827   H         1 RES1   0.0000
   210 H111      3.6183    2.7266    2.5684   H         1 RES1   0.0000
   211 H112      5.9848    4.5500    3.1132   H         1 RES1   0.0000
   212 H113      5.6451    3.0111    3.8700   H         1 RES1   0.0000
   213 H114      3.3068    4.5938    4.2649   H         1 RES1   0.0000
   214 H115      4.1349    2.8562    5.8032   H         1 RES1   0.0000
   215 H116      3.9357    4.3805    6.6672   H         1 RES1   0.0000
   216 H117      5.5424    3.8496    6.1880   H         1 RES1   0.0000
   217 H118      5.0856    6.4652    3.7023   H         1 RES1   0.0000
   218 H119      5.6551    6.1462    5.3377   H         1 RES1   0.0000
   219 H120      4.0757    7.9445    5.5130   H         1 RES1   0.0000
   220 H121      3.2721    6.5205    6.1378   H         1 RES1   0.0000
   221 H122      1.5711    7.1778    4.7627   H         1 RES1   0.0000
   222 H123      2.5039    6.3733    3.4992   H         1 RES1   0.0000
   223 H124      2.5924    9.3430    4.1620   H         1 RES1   0.0000
   224 H125      1.3129    7.8445    1.8259   H         1 RES1   0.0000
   225 H126      1.3572    9.5985    2.0251   H         1 RES1   0.0000
   226 H127      0.4353    8.6143    3.1608   H         1 RES1   0.0000
   227 H128      3.8695    7.8062    1.8491   H         1 RES1   0.0000
   228 H129      4.7431    8.5876    3.1844   H         1 RES1   0.0000
   229 H130      3.8460    9.5614    2.0309   H         1 RES1   0.0000
   230 H131      1.2431    4.4073   -1.0961   H         1 RES1   0.0000
   231 H132      0.8873    3.4865    0.4016   H         1 RES1   0.0000
   232 H133     -1.8907    2.7377   -1.8022   H         1 RES1   0.0000
   233 H134     -1.4071    4.0270   -0.6566   H         1 RES1   0.0000
   234 H135     -3.6770    0.3521    2.0180   H         1 RES1   0.0000
   235 H136     -2.8285    1.5547    2.9676   H         1 RES1   0.0000
   236 H137     -1.2664   -0.4589    1.3029   H         1 RES1   0.0000
   237 H138     -0.7067    0.5087    2.6654   H         1 RES1   0.0000
   238 H139     -2.4405   -1.9688    2.8165   H         1 RES1   0.0000
   239 H140     -2.0708   -0.9010    4.1891   H         1 RES1   0.0000
   240 H141      0.2767   -1.1268    3.7667   H         1 RES1   0.0000
   241 H142      0.0077   -2.1241    2.3382   H         1 RES1   0.0000
   242 H143     -0.1228   -2.7914    5.2938   H         1 RES1   0.0000
   243 H144      0.9679   -3.4183    4.0927   H         1 RES1   0.0000
   244 H145     -1.5809   -4.3551    3.3209   H         1 RES1   0.0000
   245 H146     -1.5541   -4.4762    5.0527   H         1 RES1   0.0000
   246 H147      0.6267   -5.6133    4.9964   H         1 RES1   0.0000
   247 H148      0.4434   -5.7671    3.2476   H         1 RES1   0.0000
   248 H149     -0.1651   -7.8192    4.3643   H         1 RES1   0.0000
   249 H150     -1.5592   -7.1533    3.5370   H         1 RES1   0.0000
   250 H151     -1.4218   -7.0270    5.2850   H         1 RES1   0.0000
   251 H152     -4.3817    2.8004    1.5698   H         1 RES1   0.0000
   252 H153     -4.6407    1.4459    0.4695   H         1 RES1   0.0000
   253 H154     -3.7559    3.0133   -1.3910   H         1 RES1   0.0000
   254 H155     -4.1021    4.3204   -0.2701   H         1 RES1   0.0000
   255 H156     -6.3066    4.1169   -0.9983   H         1 RES1   0.0000
   256 H157     -6.3757    2.6173   -0.1301   H         1 RES1   0.0000
   257 H158     -5.1996    1.5896   -2.2305   H         1 RES1   0.0000
   258 H159     -5.7208    3.0506   -3.0574   H         1 RES1   0.0000
   259 H160     -7.7732    1.4450   -1.5299   H         1 RES1   0.0000
   260 H161     -7.8382    3.0945   -4.0939   H         1 RES1   0.0000
   261 H162     -8.4612    3.5826   -2.5139   H         1 RES1   0.0000
   262 H163     -9.2244    2.2654   -3.4025   H         1 RES1   0.0000
   263 H164     -6.7510    0.7617   -4.3188   H         1 RES1   0.0000
   264 H165     -8.1527    0.0566   -3.5366   H         1 RES1   0.0000
   265 H166     -6.4387   -0.6050   -1.6339   H         1 RES1   0.0000
   266 H167     -5.2264   -0.3275   -2.8783   H         1 RES1   0.0000
   267 H168     -5.5698   -2.5036   -3.4912   H         1 RES1   0.0000
   268 H169     -7.0615   -1.9397   -4.2201   H         1 RES1   0.0000
   269 H170     -6.8608   -2.8553   -1.3266   H         1 RES1   0.0000
   270 H171     -7.7025   -4.4502   -3.7872   H         1 RES1   0.0000
   271 H172     -7.8477   -4.9963   -2.1243   H         1 RES1   0.0000
   272 H173     -6.2548   -4.7452   -2.8333   H         1 RES1   0.0000
   273 H174     -9.2457   -2.5132   -3.1997   H         1 RES1   0.0000
   274 H175     -8.8399   -1.4337   -1.8611   H         1 RES1   0.0000
   275 H176     -9.3203   -3.0944   -1.5390   H         1 RES1   0.0000
   276 C89      -4.2950    8.0411   -0.8419   C.3       1 RES1   0.0000
   277 C90      -2.9989    7.4046   -0.3617   C.3       1 RES1   0.0000
   278 C91      -3.1614    6.7874    1.0221   C.3       1 RES1   0.0000
   279 C92      -1.8377    6.2834    1.5895   C.3       1 RES1   0.0000
   280 C93      -2.0200    5.6182    2.9523   C.3       1 RES1   0.0000
   281 C94      -0.7007    5.1174    3.5535   C.3       1 RES1   0.0000
   282 C95      -0.3359    3.7228    3.0323   C.3       1 RES1   0.0000
   283 C96       0.9549    3.2021    3.6676   C.3       1 RES1   0.0000
   284 N5        1.1520    1.7546    3.7965   N.am      1 RES1   0.0000
   285 C97       0.8323    1.1994    5.1074   C.3       1 RES1   0.0000
   286 C98      -0.6889    1.2211    5.4114   C.3       1 RES1   0.0000
   287 C99      -1.2097    2.3669    6.3028   C.3       1 RES1   0.0000
   288 C100     -2.5761    2.9348    5.8650   C.3       1 RES1   0.0000
   289 C101     -3.7944    1.9858    5.9394   C.3       1 RES1   0.0000
   290 C102     -4.3748    1.9653    7.3536   C.3       1 RES1   0.0000
   291 C103     -4.9023    2.4152    4.9536   C.3       1 RES1   0.0000
   292 C104     -5.8625    1.2950    4.5485   C.3       1 RES1   0.0000
   293 C105     -6.9300    1.8297    3.5921   C.3       1 RES1   0.0000
   294 C106     -7.8996    0.7958    2.9954   C.3       1 RES1   0.0000
   295 C107     -8.7176    0.0876    4.0714   C.3       1 RES1   0.0000
   296 C108     -7.1921   -0.2359    2.1163   C.3       1 RES1   0.0000
   297 C109      1.7002    1.1224    2.7466   C.2       1 RES1   0.0000
   298 O7        1.7203    1.6404    1.6227   O.2       1 RES1   0.0000
   299 C110      2.4623   -0.2213    2.8104   C.3       1 RES1   0.0000
   300 O8        2.2974   -0.8516    1.5339   O.3       1 RES1   0.0000
   301 C111      3.4775   -0.9706    0.7385   C.3       1 RES1   0.0000
   302 C112      2.9743   -1.3129   -0.6622   C.2       1 RES1   0.0000
   303 O9        1.8039   -1.7298   -0.7761   O.2       1 RES1   0.0000
   304 N6        3.7206   -1.0719   -1.7349   N.am      1 RES1   0.0000
   305 C113      5.1780   -1.1068   -1.6257   C.3       1 RES1   0.0000
   306 C114      5.9187   -1.6363   -2.8653   C.3       1 RES1   0.0000
   307 C115      6.8650   -0.6045   -3.4889   C.3       1 RES1   0.0000
   308 C116      7.1828   -0.9484   -4.9432   C.3       1 RES1   0.0000
   309 C117      7.8459    0.2038   -5.6974   C.3       1 RES1   0.0000
   310 C118      6.9150    1.3961   -5.9130   C.3       1 RES1   0.0000
   311 C119      7.5414    2.4790   -6.7897   C.3       1 RES1   0.0000
   312 C120      6.5690    3.6258   -7.0394   C.3       1 RES1   0.0000
   313 C121      2.9648   -0.9436   -2.9909   C.3       1 RES1   0.0000
   314 C122      3.5138    0.0284   -4.0403   C.3       1 RES1   0.0000
   315 C123      2.5150    1.1060   -4.5263   C.3       1 RES1   0.0000
   316 C124      3.1146    2.4955   -4.2995   C.3       1 RES1   0.0000
   317 C125      2.4800    3.7025   -5.0015   C.3       1 RES1   0.0000
   318 C126      3.3877    4.9032   -4.7175   C.3       1 RES1   0.0000
   319 C127      1.0323    3.9389   -4.5464   C.3       1 RES1   0.0000
   320 C128      0.5201    5.3266   -4.9308   C.3       1 RES1   0.0000
   321 C129     -0.9486    5.5590   -4.5837   C.3       1 RES1   0.0000
   322 C130     -1.3886    7.0057   -4.8565   C.3       1 RES1   0.0000
   323 C131     -0.8067    7.9709   -3.8262   C.3       1 RES1   0.0000
   324 C132     -2.9122    7.1149   -4.8553   C.3       1 RES1   0.0000
   325 H177     -4.1613    8.4906   -1.8218   H         1 RES1   0.0000
   326 H178     -4.6074    8.8225   -0.1534   H         1 RES1   0.0000
   327 H179     -5.0915    7.3007   -0.9028   H         1 RES1   0.0000
   328 H180     -2.2182    8.1644   -0.3209   H         1 RES1   0.0000
   329 H181     -2.6781    6.6363   -1.0719   H         1 RES1   0.0000
   330 H182     -3.8856    5.9699    0.9793   H         1 RES1   0.0000
   331 H183     -3.5699    7.5350    1.7013   H         1 RES1   0.0000
   332 H184     -1.1584    7.1314    1.6967   H         1 RES1   0.0000
   333 H185     -1.3739    5.5806    0.8864   H         1 RES1   0.0000
   334 H186     -2.7261    4.7870    2.8576   H         1 RES1   0.0000
   335 H187     -2.4788    6.3444    3.6241   H         1 RES1   0.0000
   336 H188     -0.7910    5.0845    4.6403   H         1 RES1   0.0000
   337 H189      0.0943    5.8258    3.3132   H         1 RES1   0.0000
   338 H190     -0.2199    3.7734    1.9484   H         1 RES1   0.0000
   339 H191     -1.1625    3.0469    3.2391   H         1 RES1   0.0000
   340 H192      1.0494    3.6128    4.6691   H         1 RES1   0.0000
   341 H193      1.7874    3.5607    3.0728   H         1 RES1   0.0000
   342 H194      1.3790    1.7690    5.8635   H         1 RES1   0.0000
   343 H195      1.1986    0.1733    5.1479   H         1 RES1   0.0000
   344 H196     -0.9495    0.2789    5.8950   H         1 RES1   0.0000
   345 H197     -1.2123    1.2568    4.4620   H         1 RES1   0.0000
   346 H198     -0.4951    3.1937    6.2943   H         1 RES1   0.0000
   347 H199     -1.2727    2.0194    7.3337   H         1 RES1   0.0000
   348 H200     -2.4704    3.3011    4.8420   H         1 RES1   0.0000
   349 H201     -2.7854    3.8044    6.4922   H         1 RES1   0.0000
   350 H202     -3.4646    0.9711    5.6806   H         1 RES1   0.0000
   351 H203     -4.7194    2.9608    7.6300   H         1 RES1   0.0000
   352 H204     -3.6368    1.6466    8.0850   H         1 RES1   0.0000
   353 H205     -5.2237    1.2878    7.4058   H         1 RES1   0.0000
   354 H206     -4.4566    2.8194    4.0391   H         1 RES1   0.0000
   355 H207     -5.4788    3.2246    5.4044   H         1 RES1   0.0000
   356 H208     -6.3447    0.8828    5.4316   H         1 RES1   0.0000
   357 H209     -5.2980    0.4935    4.0663   H         1 RES1   0.0000
   358 H210     -6.4365    2.3454    2.7625   H         1 RES1   0.0000
   359 H211     -7.5284    2.5728    4.1195   H         1 RES1   0.0000
   360 H212     -8.5983    1.3483    2.3544   H         1 RES1   0.0000
   361 H213     -8.0830   -0.5439    4.6872   H         1 RES1   0.0000
   362 H214     -9.4846   -0.5404    3.6243   H         1 RES1   0.0000
   363 H215     -9.2118    0.8105    4.7131   H         1 RES1   0.0000
   364 H216     -6.6171    0.2469    1.3263   H         1 RES1   0.0000
   365 H217     -7.9238   -0.8892    1.6465   H         1 RES1   0.0000
   366 H218     -6.5229   -0.8527    2.7123   H         1 RES1   0.0000
   367 H219      2.1287   -0.9231    3.5709   H         1 RES1   0.0000
   368 H220      3.5155    0.0163    2.9940   H         1 RES1   0.0000
   369 H221      4.1444   -1.7534    1.1269   H         1 RES1   0.0000
   370 H222      4.0138   -0.0170    0.7099   H         1 RES1   0.0000
   371 H223      5.3999   -1.7472   -0.7709   H         1 RES1   0.0000
   372 H224      5.5594   -0.1136   -1.3933   H         1 RES1   0.0000
   373 H225      5.1931   -1.9685   -3.6046   H         1 RES1   0.0000
   374 H226      6.5113   -2.5076   -2.5839   H         1 RES1   0.0000
   375 H227      7.7944   -0.5764   -2.9189   H         1 RES1   0.0000
   376 H228      6.4211    0.3901   -3.4403   H         1 RES1   0.0000
   377 H229      6.2637   -1.2281   -5.4640   H         1 RES1   0.0000
   378 H230      7.8432   -1.8152   -4.9591   H         1 RES1   0.0000
   379 H231      8.1651   -0.1658   -6.6722   H         1 RES1   0.0000
   380 H232      8.7366    0.5297   -5.1590   H         1 RES1   0.0000
   381 H233      6.6506    1.8471   -4.9524   H         1 RES1   0.0000
   382 H234      5.9912    1.0487   -6.3826   H         1 RES1   0.0000
   383 H235      7.8462    2.0462   -7.7433   H         1 RES1   0.0000
   384 H236      8.4375    2.8687   -6.3041   H         1 RES1   0.0000
   385 H237      5.6550    3.2570   -7.5007   H         1 RES1   0.0000
   386 H238      7.0131    4.3686   -7.6953   H         1 RES1   0.0000
   387 H239      6.3102    4.1192   -6.1036   H         1 RES1   0.0000
   388 H240      1.9641   -0.5992   -2.6814   H         1 RES1   0.0000
   389 H241      2.8370   -1.9387   -3.4111   H         1 RES1   0.0000
   390 H242      3.8662   -0.5358   -4.9033   H         1 RES1   0.0000
   391 H243      4.3851    0.5333   -3.6376   H         1 RES1   0.0000
   392 H244      1.5657    1.0382   -3.9838   H         1 RES1   0.0000
   393 H245      2.3160    0.9619   -5.5876   H         1 RES1   0.0000
   394 H246      4.1589    2.4630   -4.6167   H         1 RES1   0.0000
   395 H247      3.0827    2.6876   -3.2278   H         1 RES1   0.0000
   396 H248      2.4801    3.5363   -6.0816   H         1 RES1   0.0000
   397 H249      3.3511    5.1728   -3.6640   H         1 RES1   0.0000
   398 H250      3.1033    5.7686   -5.3043   H         1 RES1   0.0000
   399 H251      4.4154    4.6626   -4.9774   H         1 RES1   0.0000
   400 H252      0.9669    3.8119   -3.4630   H         1 RES1   0.0000
   401 H253      0.3905    3.1772   -4.9952   H         1 RES1   0.0000
   402 H254      0.6654    5.4713   -6.0029   H         1 RES1   0.0000
   403 H255      1.1136    6.0740   -4.4080   H         1 RES1   0.0000
   404 H256     -1.1140    5.3312   -3.5250   H         1 RES1   0.0000
   405 H257     -1.5706    4.8812   -5.1718   H         1 RES1   0.0000
   406 H258     -1.0246    7.2953   -5.8472   H         1 RES1   0.0000
   407 H259     -1.1354    7.7000   -2.8243   H         1 RES1   0.0000
   408 H260     -1.1472    8.9807   -4.0342   H         1 RES1   0.0000
   409 H261      0.2798    7.9755   -3.8486   H         1 RES1   0.0000
   410 H262     -3.3175    6.8176   -3.8904   H         1 RES1   0.0000
   411 H263     -3.3497    6.4820   -5.6232   H         1 RES1   0.0000
   412 H264     -3.2194    8.1393   -5.0469   H         1 RES1   0.0000
@<TRIPOS>BOND
     1     1    24    1
     2     1    26    1
     3     1    29    1
     4     1   161    1
     5     1   163    1
     6     1   166    1
     7     1   298    1
     8     1   300    1
     9     1   303    1
    10     2     3    1
    11     2    51    1
    12     2    52    1
    13     2    53    1
    14     3     4    1
    15     3    54    1
    16     3    55    1
    17     4     5    1
    18     4    56    1
    19     4    57    1
    20     5     6    1
    21     5    58    1
    22     5    59    1
    23     6     7    1
    24     6    60    1
    25     6    61    1
    26     7     8    1
    27     7    62    1
    28     7    63    1
    29     8     9    1
    30     8    64    1
    31     8    65    1
    32     9    10    1
    33     9    66    1
    34     9    67    1
    35    10    11    1
    36    10    23    1
    37    11    12    1
    38    11    68    1
    39    11    69    1
    40    12    13    1
    41    12    70    1
    42    12    71    1
    43    13    14    1
    44    13    72    1
    45    13    73    1
    46    14    15    1
    47    14    74    1
    48    14    75    1
    49    15    16    1
    50    15    17    1
    51    15    76    1
    52    16    77    1
    53    16    78    1
    54    16    79    1
    55    17    18    1
    56    17    80    1
    57    17    81    1
    58    18    19    1
    59    18    82    1
    60    18    83    1
    61    19    20    1
    62    19    84    1
    63    19    85    1
    64    20    21    1
    65    20    22    1
    66    20    86    1
    67    21    87    1
    68    21    88    1
    69    21    89    1
    70    22    90    1
    71    22    91    1
    72    22    92    1
    73    23    24    2
    74    23    25    1
    75    25    26    1
    76    25    93    1
    77    25    94    1
    78    26    27    1
    79    27    28    1
    80    27    95    1
    81    27    96    1
    82    28    29    2
    83    28    30    1
    84    30    31    1
    85    30    39    1
    86    31    32    1
    87    31    97    1
    88    31    98    1
    89    32    33    1
    90    32    99    1
    91    32   100    1
    92    33    34    1
    93    33   101    1
    94    33   102    1
    95    34    35    1
    96    34   103    1
    97    34   104    1
    98    35    36    1
    99    35   105    1
   100    35   106    1
   101    36    37    1
   102    36   107    1
   103    36   108    1
   104    37    38    1
   105    37   109    1
   106    37   110    1
   107    38   111    1
   108    38   112    1
   109    38   113    1
   110    39    40    1
   111    39   114    1
   112    39   115    1
   113    40    41    1
   114    40   116    1
   115    40   117    1
   116    41    42    1
   117    41   118    1
   118    41   119    1
   119    42    43    1
   120    42   120    1
   121    42   121    1
   122    43    44    1
   123    43    45    1
   124    43   122    1
   125    44   123    1
   126    44   124    1
   127    44   125    1
   128    45    46    1
   129    45   126    1
   130    45   127    1
   131    46    47    1
   132    46   128    1
   133    46   129    1
   134    47    48    1
   135    47   130    1
   136    47   131    1
   137    48    49    1
   138    48    50    1
   139    48   132    1
   140    49   133    1
   141    49   134    1
   142    49   135    1
   143    50   136    1
   144    50   137    1
   145    50   138    1
   146   139   140    1
   147   139   188    1
   148   139   189    1
   149   139   190    1
   150   140   141    1
   151   140   191    1
   152   140   192    1
   153   141   142    1
   154   141   193    1
   155   141   194    1
   156   142   143    1
   157   142   195    1
   158   142   196    1
   159   143   144    1
   160   143   197    1
   161   143   198    1
   162   144   145    1
   163   144   199    1
   164   144   200    1
   165   145   146    1
   166   145   201    1
   167   145   202    1
   168   146   147    1
   169   146   203    1
   170   146   204    1
   171   147   148    1
   172   147   160    1
   173   148   149    1
   174   148   205    1
   175   148   206    1
   176   149   150    1
   177   149   207    1
   178   149   208    1
   179   150   151    1
   180   150   209    1
   181   150   210    1
   182   151   152    1
   183   151   211    1
   184   151   212    1
   185   152   153    1
   186   152   154    1
   187   152   213    1
   188   153   214    1
   189   153   215    1
   190   153   216    1
   191   154   155    1
   192   154   217    1
   193   154   218    1
   194   155   156    1
   195   155   219    1
   196   155   220    1
   197   156   157    1
   198   156   221    1
   199   156   222    1
   200   157   158    1
   201   157   159    1
   202   157   223    1
   203   158   224    1
   204   158   225    1
   205   158   226    1
   206   159   227    1
   207   159   228    1
   208   159   229    1
   209   160   161    2
   210   160   162    1
   211   162   163    1
   212   162   230    1
   213   162   231    1
   214   163   164    1
   215   164   165    1
   216   164   232    1
   217   164   233    1
   218   165   166    2
   219   165   167    1
   220   167   168    1
   221   167   176    1
   222   168   169    1
   223   168   234    1
   224   168   235    1
   225   169   170    1
   226   169   236    1
   227   169   237    1
   228   170   171    1
   229   170   238    1
   230   170   239    1
   231   171   172    1
   232   171   240    1
   233   171   241    1
   234   172   173    1
   235   172   242    1
   236   172   243    1
   237   173   174    1
   238   173   244    1
   239   173   245    1
   240   174   175    1
   241   174   246    1
   242   174   247    1
   243   175   248    1
   244   175   249    1
   245   175   250    1
   246   176   177    1
   247   176   251    1
   248   176   252    1
   249   177   178    1
   250   177   253    1
   251   177   254    1
   252   178   179    1
   253   178   255    1
   254   178   256    1
   255   179   180    1
   256   179   257    1
   257   179   258    1
   258   180   181    1
   259   180   182    1
   260   180   259    1
   261   181   260    1
   262   181   261    1
   263   181   262    1
   264   182   183    1
   265   182   263    1
   266   182   264    1
   267   183   184    1
   268   183   265    1
   269   183   266    1
   270   184   185    1
   271   184   267    1
   272   184   268    1
   273   185   186    1
   274   185   187    1
   275   185   269    1
   276   186   270    1
   277   186   271    1
   278   186   272    1
   279   187   273    1
   280   187   274    1
   281   187   275    1
   282   276   277    1
   283   276   325    1
   284   276   326    1
   285   276   327    1
   286   277   278    1
   287   277   328    1
   288   277   329    1
   289   278   279    1
   290   278   330    1
   291   278   331    1
   292   279   280    1
   293   279   332    1
   294   279   333    1
   295   280   281    1
   296   280   334    1
   297   280   335    1
   298   281   282    1
   299   281   336    1
   300   281   337    1
   301   282   283    1
   302   282   338    1
   303   282   339    1
   304   283   284    1
   305   283   340    1
   306   283   341    1
   307   284   285    1
   308   284   297    1
   309   285   286    1
   310   285   342    1
   311   285   343    1
   312   286   287    1
   313   286   344    1
   314   286   345    1
   315   287   288    1
   316   287   346    1
   317   287   347    1
   318   288   289    1
   319   288   348    1
   320   288   349    1
   321   289   290    1
   322   289   291    1
   323   289   350    1
   324   290   351    1
   325   290   352    1
   326   290   353    1
   327   291   292    1
   328   291   354    1
   329   291   355    1
   330   292   293    1
   331   292   356    1
   332   292   357    1
   333   293   294    1
   334   293   358    1
   335   293   359    1
   336   294   295    1
   337   294   296    1
   338   294   360    1
   339   295   361    1
   340   295   362    1
   341   295   363    1
   342   296   364    1
   343   296   365    1
   344   296   366    1
   345   297   298    2
   346   297   299    1
   347   299   300    1
   348   299   367    1
   349   299   368    1
   350   300   301    1
   351   301   302    1
   352   301   369    1
   353   301   370    1
   354   302   303    2
   355   302   304    1
   356   304   305    1
   357   304   313    1
   358   305   306    1
   359   305   371    1
   360   305   372    1
   361   306   307    1
   362   306   373    1
   363   306   374    1
   364   307   308    1
   365   307   375    1
   366   307   376    1
   367   308   309    1
   368   308   377    1
   369   308   378    1
   370   309   310    1
   371   309   379    1
   372   309   380    1
   373   310   311    1
   374   310   381    1
   375   310   382    1
   376   311   312    1
   377   311   383    1
   378   311   384    1
   379   312   385    1
   380   312   386    1
   381   312   387    1
   382   313   314    1
   383   313   388    1
   384   313   389    1
   385   314   315    1
   386   314   390    1
   387   314   391    1
   388   315   316    1
   389   315   392    1
   390   315   393    1
   391   316   317    1
   392   316   394    1
   393   316   395    1
   394   317   318    1
   395   317   319    1
   396   317   396    1
   397   318   397    1
   398   318   398    1
   399   318   399    1
   400   319   320    1
   401   319   400    1
   402   319   401    1
   403   320   321    1
   404   320   402    1
   405   320   403    1
   406   321   322    1
   407   321   404    1
   408   321   405    1
   409   322   323    1
   410   322   324    1
   411   322   406    1
   412   323   407    1
   413   323   408    1
   414   323   409    1
   415   324   410    1
   416   324   411    1
   417   324   412    1
@<TRIPOS>SUBSTRUCTURE
     1 RES1      412 GROUP             0 ****  ****    0  
