@<TRIPOS>MOLECULE
tricapped_trigonal_prismatic_0_nunpairedes_0_charge_3 Charge: 3 Unpaired_Electrons: 2 XTB_Unpaired_Electrons: 0 XTB_Charge: 3
   466   471     1     0     0
SMALL
NoCharges
****
Generated from Architector

@<TRIPOS>ATOM
     1 Pr1       0.1825    0.3869    0.1548   Pr        1 RES1   0.0000
     2 C1       -7.0275    7.6096    1.9328   C.3       1 RES1   0.0000
     3 C2       -7.3557    7.0597    3.3145   C.3       1 RES1   0.0000
     4 C3       -6.5067    5.8479    3.6984   C.3       1 RES1   0.0000
     5 C4       -4.9990    6.1104    3.7550   C.3       1 RES1   0.0000
     6 C5       -4.6183    7.1200    4.8355   C.3       1 RES1   0.0000
     7 C6       -3.1223    7.1459    5.1650   C.3       1 RES1   0.0000
     8 C7       -2.3003    8.1892    4.3989   C.3       1 RES1   0.0000
     9 C8       -1.9167    7.8501    2.9521   C.3       1 RES1   0.0000
    10 C9       -1.0525    6.5873    2.8172   C.3       1 RES1   0.0000
    11 C10      -0.2887    6.4936    1.4714   C.3       1 RES1   0.0000
    12 N1       -0.6855    5.3551    0.6431   N.am      1 RES1   0.0000
    13 C11      -1.8400    5.6218   -0.2095   C.3       1 RES1   0.0000
    14 C12      -1.6738    6.7199   -1.2754   C.3       1 RES1   0.0000
    15 C13      -0.7185    6.3860   -2.4250   C.3       1 RES1   0.0000
    16 C14      -1.0931    7.1563   -3.7026   C.3       1 RES1   0.0000
    17 C15      -0.8239    6.3733   -4.9921   C.3       1 RES1   0.0000
    18 C16      -1.7556    6.7495   -6.1521   C.3       1 RES1   0.0000
    19 C17      -2.0576    5.5519   -7.0684   C.3       1 RES1   0.0000
    20 C18      -3.5617    5.3411   -7.2122   C.3       1 RES1   0.0000
    21 C19      -3.9209    4.0449   -7.9439   C.3       1 RES1   0.0000
    22 C20      -5.1868    3.4364   -7.3589   C.3       1 RES1   0.0000
    23 C21      -0.2117    4.1082    0.7440   C.2       1 RES1   0.0000
    24 O1       -0.7705    3.0847    0.2960   O.2       1 RES1   0.0000
    25 C22       1.1758    3.9195    1.3778   C.3       1 RES1   0.0000
    26 C23       1.1354    3.6820    2.8936   C.3       1 RES1   0.0000
    27 C24       0.6308    2.2888    3.2553   C.3       1 RES1   0.0000
    28 C25       0.8747    1.9782    4.7308   C.3       1 RES1   0.0000
    29 O2        1.7802    2.8020    0.7263   O.3       1 RES1   0.0000
    30 C26       2.8132    3.1157   -0.2033   C.3       1 RES1   0.0000
    31 C27       4.1493    2.5065    0.2756   C.3       1 RES1   0.0000
    32 C28       4.3439    2.5989    1.7929   C.3       1 RES1   0.0000
    33 C29       5.6255    1.9068    2.2405   C.3       1 RES1   0.0000
    34 C30       2.4601    2.4361   -1.5307   C.2       1 RES1   0.0000
    35 O3        1.7516    1.4127   -1.4594   O.2       1 RES1   0.0000
    36 N2        2.9539    2.8651   -2.6935   N.am      1 RES1   0.0000
    37 C31       2.8447    1.9628   -3.8406   C.3       1 RES1   0.0000
    38 C32       4.1369    1.8121   -4.6576   C.3       1 RES1   0.0000
    39 C33       4.2186    0.4155   -5.2832   C.3       1 RES1   0.0000
    40 C34       4.9708    0.3621   -6.6116   C.3       1 RES1   0.0000
    41 C35       6.4839    0.5787   -6.4782   C.3       1 RES1   0.0000
    42 C36       7.2656   -0.7241   -6.6525   C.3       1 RES1   0.0000
    43 C37       8.7506   -0.5340   -6.3088   C.3       1 RES1   0.0000
    44 C38       9.2806   -1.5180   -5.2690   C.3       1 RES1   0.0000
    45 C39      10.6471   -1.0857   -4.7266   C.3       1 RES1   0.0000
    46 C40      11.0222   -1.8337   -3.4522   C.3       1 RES1   0.0000
    47 C41       3.6482    4.1260   -2.9293   C.3       1 RES1   0.0000
    48 C42       3.1452    4.8622   -4.1763   C.3       1 RES1   0.0000
    49 C43       3.8377    6.2129   -4.3583   C.3       1 RES1   0.0000
    50 C44       5.3365    6.1082   -4.6353   C.3       1 RES1   0.0000
    51 C45       5.9443    7.4769   -4.9481   C.3       1 RES1   0.0000
    52 C46       7.4520    7.3842   -5.2061   C.3       1 RES1   0.0000
    53 C47       8.2602    7.2628   -3.9080   C.3       1 RES1   0.0000
    54 C48       9.4988    6.3864   -4.0674   C.3       1 RES1   0.0000
    55 C49      10.4381    6.4956   -2.8644   C.3       1 RES1   0.0000
    56 C50      11.3505    5.2794   -2.7602   C.3       1 RES1   0.0000
    57 H1       -7.7255    8.3973    1.6652   H         1 RES1   0.0000
    58 H2       -7.0985    6.8250    1.1818   H         1 RES1   0.0000
    59 H3       -6.0260    8.0323    1.9000   H         1 RES1   0.0000
    60 H4       -8.4043    6.7573    3.3314   H         1 RES1   0.0000
    61 H5       -7.2347    7.8475    4.0569   H         1 RES1   0.0000
    62 H6       -6.6991    5.0439    2.9807   H         1 RES1   0.0000
    63 H7       -6.8358    5.4916    4.6778   H         1 RES1   0.0000
    64 H8       -4.6477    6.4443    2.7764   H         1 RES1   0.0000
    65 H9       -4.5051    5.1603    3.9769   H         1 RES1   0.0000
    66 H10      -5.1683    6.8642    5.7426   H         1 RES1   0.0000
    67 H11      -4.9372    8.1164    4.5353   H         1 RES1   0.0000
    68 H12      -2.6955    6.1535    5.0108   H         1 RES1   0.0000
    69 H13      -3.0132    7.3704    6.2280   H         1 RES1   0.0000
    70 H14      -1.3817    8.3725    4.9625   H         1 RES1   0.0000
    71 H15      -2.8538    9.1325    4.3877   H         1 RES1   0.0000
    72 H16      -1.3546    8.7066    2.5759   H         1 RES1   0.0000
    73 H17      -2.8194    7.7641    2.3455   H         1 RES1   0.0000
    74 H18      -1.6990    5.7156    2.9097   H         1 RES1   0.0000
    75 H19      -0.3346    6.5682    3.6427   H         1 RES1   0.0000
    76 H20       0.7845    6.4874    1.6606   H         1 RES1   0.0000
    77 H21      -0.5037    7.3851    0.8857   H         1 RES1   0.0000
    78 H22      -2.6771    5.9103    0.4319   H         1 RES1   0.0000
    79 H23      -2.0681    4.6903   -0.7286   H         1 RES1   0.0000
    80 H24      -1.4144    7.6879   -0.8446   H         1 RES1   0.0000
    81 H25      -2.6756    6.8191   -1.7031   H         1 RES1   0.0000
    82 H26      -0.7962    5.3124   -2.5966   H         1 RES1   0.0000
    83 H27       0.3149    6.6042   -2.1549   H         1 RES1   0.0000
    84 H28      -0.5711    8.1117   -3.7314   H         1 RES1   0.0000
    85 H29      -2.1611    7.3857   -3.6648   H         1 RES1   0.0000
    86 H30      -0.9771    5.3156   -4.7814   H         1 RES1   0.0000
    87 H31       0.2088    6.5010   -5.3136   H         1 RES1   0.0000
    88 H32      -1.3231    7.5697   -6.7215   H         1 RES1   0.0000
    89 H33      -2.7011    7.1101   -5.7442   H         1 RES1   0.0000
    90 H34      -1.6279    4.6496   -6.6232   H         1 RES1   0.0000
    91 H35      -1.6035    5.6673   -8.0558   H         1 RES1   0.0000
    92 H36      -3.9888    6.1888   -7.7491   H         1 RES1   0.0000
    93 H37      -4.0075    5.3439   -6.2133   H         1 RES1   0.0000
    94 H38      -3.1034    3.3246   -7.8556   H         1 RES1   0.0000
    95 H39      -4.0570    4.2529   -9.0027   H         1 RES1   0.0000
    96 H40      -4.9782    3.0411   -6.3641   H         1 RES1   0.0000
    97 H41      -5.5767    2.6292   -7.9747   H         1 RES1   0.0000
    98 H42      -5.9602    4.1963   -7.2696   H         1 RES1   0.0000
    99 H43       1.7808    4.8130    1.1841   H         1 RES1   0.0000
   100 H44       2.1407    3.8149    3.2924   H         1 RES1   0.0000
   101 H45       0.5088    4.4446    3.3517   H         1 RES1   0.0000
   102 H46       1.1598    1.5393    2.6378   H         1 RES1   0.0000
   103 H47      -0.4481    2.2362    3.0426   H         1 RES1   0.0000
   104 H48       1.9338    2.0634    4.9723   H         1 RES1   0.0000
   105 H49       0.5684    0.9576    4.9476   H         1 RES1   0.0000
   106 H50       0.3192    2.6607    5.3736   H         1 RES1   0.0000
   107 H51       2.9127    4.2009   -0.3064   H         1 RES1   0.0000
   108 H52       4.1539    1.4504   -0.0095   H         1 RES1   0.0000
   109 H53       4.9608    3.0154   -0.2386   H         1 RES1   0.0000
   110 H54       3.4974    2.1104    2.2744   H         1 RES1   0.0000
   111 H55       4.3770    3.6469    2.1104   H         1 RES1   0.0000
   112 H56       5.6124    0.8466    1.9941   H         1 RES1   0.0000
   113 H57       5.7421    1.9967    3.3190   H         1 RES1   0.0000
   114 H58       6.4908    2.3569    1.7592   H         1 RES1   0.0000
   115 H59       2.0273    2.2905   -4.4917   H         1 RES1   0.0000
   116 H60       2.5713    0.9873   -3.4285   H         1 RES1   0.0000
   117 H61       5.0010    1.9770   -4.0164   H         1 RES1   0.0000
   118 H62       4.1744    2.5579   -5.4533   H         1 RES1   0.0000
   119 H63       3.2109    0.0485   -5.4746   H         1 RES1   0.0000
   120 H64       4.7043   -0.2543   -4.5703   H         1 RES1   0.0000
   121 H65       4.5333    1.0877   -7.3032   H         1 RES1   0.0000
   122 H66       4.8058   -0.6264   -7.0458   H         1 RES1   0.0000
   123 H67       6.7097    1.0082   -5.5011   H         1 RES1   0.0000
   124 H68       6.8372    1.2840   -7.2311   H         1 RES1   0.0000
   125 H69       7.1449   -1.0289   -7.6920   H         1 RES1   0.0000
   126 H70       6.8298   -1.5076   -6.0293   H         1 RES1   0.0000
   127 H71       8.8928    0.4797   -5.9306   H         1 RES1   0.0000
   128 H72       9.3525   -0.6166   -7.2123   H         1 RES1   0.0000
   129 H73       9.3684   -2.5120   -5.7135   H         1 RES1   0.0000
   130 H74       8.5773   -1.5985   -4.4319   H         1 RES1   0.0000
   131 H75      10.6388   -0.0085   -4.5276   H         1 RES1   0.0000
   132 H76      11.4128   -1.2660   -5.4796   H         1 RES1   0.0000
   133 H77      10.2424   -1.7147   -2.7012   H         1 RES1   0.0000
   134 H78      11.9547   -1.4522   -3.0431   H         1 RES1   0.0000
   135 H79      11.1474   -2.8941   -3.6598   H         1 RES1   0.0000
   136 H80       4.7118    3.9163   -3.0464   H         1 RES1   0.0000
   137 H81       3.5274    4.7917   -2.0746   H         1 RES1   0.0000
   138 H82       2.0678    5.0198   -4.1028   H         1 RES1   0.0000
   139 H83       3.3445    4.2715   -5.0672   H         1 RES1   0.0000
   140 H84       3.6640    6.8385   -3.4790   H         1 RES1   0.0000
   141 H85       3.3771    6.7069   -5.2167   H         1 RES1   0.0000
   142 H86       5.5101    5.4502   -5.4896   H         1 RES1   0.0000
   143 H87       5.8621    5.6800   -3.7819   H         1 RES1   0.0000
   144 H88       5.7641    8.1630   -4.1158   H         1 RES1   0.0000
   145 H89       5.4505    7.8943   -5.8290   H         1 RES1   0.0000
   146 H90       7.7731    8.2709   -5.7554   H         1 RES1   0.0000
   147 H91       7.6490    6.5214   -5.8481   H         1 RES1   0.0000
   148 H92       7.6330    6.8325   -3.1232   H         1 RES1   0.0000
   149 H93       8.5582    8.2570   -3.5750   H         1 RES1   0.0000
   150 H94      10.0418    6.6619   -4.9734   H         1 RES1   0.0000
   151 H95       9.1745    5.3475   -4.1840   H         1 RES1   0.0000
   152 H96       9.8539    6.5896   -1.9445   H         1 RES1   0.0000
   153 H97      11.0438    7.3978   -2.9602   H         1 RES1   0.0000
   154 H98      10.7706    4.3727   -2.5919   H         1 RES1   0.0000
   155 H99      12.0519    5.3861   -1.9363   H         1 RES1   0.0000
   156 H100     11.9156    5.1519   -3.6799   H         1 RES1   0.0000
   157 C51       1.3471    2.7244    9.8550   C.3       1 RES1   0.0000
   158 C52       2.1245    2.1526    8.6765   C.3       1 RES1   0.0000
   159 C53       3.5841    2.6090    8.6838   C.3       1 RES1   0.0000
   160 C54       4.4003    1.9749    7.5577   C.3       1 RES1   0.0000
   161 C55       4.7593    0.5189    7.8578   C.3       1 RES1   0.0000
   162 C56       5.2682   -0.2516    6.6407   C.3       1 RES1   0.0000
   163 C57       4.1961   -0.5222    5.5813   C.3       1 RES1   0.0000
   164 C58       4.7832   -1.2819    4.3952   C.3       1 RES1   0.0000
   165 C59       3.8619   -1.3546    3.1755   C.3       1 RES1   0.0000
   166 C60       2.8908   -2.5371    3.1249   C.3       1 RES1   0.0000
   167 N3        1.5390   -2.3312    3.6531   N.am      1 RES1   0.0000
   168 C61       1.1750   -3.1992    4.7672   C.3       1 RES1   0.0000
   169 C62       1.2596   -4.7038    4.4437   C.3       1 RES1   0.0000
   170 C63       0.2305   -5.5195    5.2342   C.3       1 RES1   0.0000
   171 C64       0.1282   -6.9483    4.6940   C.3       1 RES1   0.0000
   172 C65      -0.7681   -7.8834    5.5169   C.3       1 RES1   0.0000
   173 C66      -2.1526   -7.3277    5.8550   C.3       1 RES1   0.0000
   174 C67      -2.9942   -6.9331    4.6414   C.3       1 RES1   0.0000
   175 C68      -4.2645   -6.2066    5.0820   C.3       1 RES1   0.0000
   176 C69      -5.0122   -5.5535    3.9217   C.3       1 RES1   0.0000
   177 C70      -5.8125   -6.5290    3.0698   C.3       1 RES1   0.0000
   178 C71       0.7241   -1.5160    2.9914   C.2       1 RES1   0.0000
   179 O4        1.1491   -0.7603    2.0893   O.2       1 RES1   0.0000
   180 C72      -0.8014   -1.5197    3.2436   C.3       1 RES1   0.0000
   181 C73      -1.2300   -1.0005    4.6396   C.3       1 RES1   0.0000
   182 C74      -2.2398   -1.8966    5.3764   C.3       1 RES1   0.0000
   183 C75      -2.2555   -1.6219    6.8750   C.3       1 RES1   0.0000
   184 O5       -1.3348   -0.6974    2.1910   O.3       1 RES1   0.0000
   185 C76      -2.7559   -0.8453    1.9753   C.3       1 RES1   0.0000
   186 C77      -3.2979    0.5720    1.6872   C.3       1 RES1   0.0000
   187 C78      -3.3932    0.9747    0.2155   C.3       1 RES1   0.0000
   188 C79      -4.6084    0.3968   -0.5067   C.3       1 RES1   0.0000
   189 C80      -2.9134   -1.8593    0.8100   C.2       1 RES1   0.0000
   190 O6       -2.0304   -1.7656   -0.0560   O.2       1 RES1   0.0000
   191 N4       -3.8905   -2.7774    0.8394   N.am      1 RES1   0.0000
   192 C81      -4.0998   -3.9414   -0.0649   C.3       1 RES1   0.0000
   193 C82      -3.3130   -4.0961   -1.3774   C.3       1 RES1   0.0000
   194 C83      -3.0181   -5.5789   -1.6929   C.3       1 RES1   0.0000
   195 C84      -2.3927   -5.9287   -3.0644   C.3       1 RES1   0.0000
   196 C85      -0.8582   -6.0143   -3.1092   C.3       1 RES1   0.0000
   197 C86      -0.2948   -6.7985   -4.3133   C.3       1 RES1   0.0000
   198 C87       0.3491   -5.9602   -5.4257   C.3       1 RES1   0.0000
   199 C88       1.6722   -5.2434   -5.1172   C.3       1 RES1   0.0000
   200 C89       2.8524   -6.1407   -4.7378   C.3       1 RES1   0.0000
   201 C90       4.1805   -5.3947   -4.8405   C.3       1 RES1   0.0000
   202 C91      -4.9108   -2.7946    1.9033   C.3       1 RES1   0.0000
   203 C92      -5.9902   -1.7278    1.7133   C.3       1 RES1   0.0000
   204 C93      -6.9504   -1.5946    2.9120   C.3       1 RES1   0.0000
   205 C94      -6.9928   -0.1628    3.4666   C.3       1 RES1   0.0000
   206 C95      -5.8154    0.0831    4.4117   C.3       1 RES1   0.0000
   207 C96      -5.4391    1.5494    4.6534   C.3       1 RES1   0.0000
   208 C97      -4.2390    1.6000    5.6027   C.3       1 RES1   0.0000
   209 C98      -3.5981    2.9710    5.8164   C.3       1 RES1   0.0000
   210 C99      -2.5105    2.8452    6.8846   C.3       1 RES1   0.0000
   211 C100     -1.6557    4.0912    7.0656   C.3       1 RES1   0.0000
   212 H101      0.3109    2.3907    9.8374   H         1 RES1   0.0000
   213 H102      1.3636    3.8113    9.8331   H         1 RES1   0.0000
   214 H103      1.7948    2.3970   10.7890   H         1 RES1   0.0000
   215 H104      1.6516    2.4631    7.7388   H         1 RES1   0.0000
   216 H105      2.0747    1.0622    8.7199   H         1 RES1   0.0000
   217 H106      4.0402    2.3583    9.6417   H         1 RES1   0.0000
   218 H107      3.6095    3.6955    8.5835   H         1 RES1   0.0000
   219 H108      5.3198    2.5436    7.4059   H         1 RES1   0.0000
   220 H109      3.8192    2.0380    6.6351   H         1 RES1   0.0000
   221 H110      3.8925   -0.0029    8.2670   H         1 RES1   0.0000
   222 H111      5.5414    0.5080    8.6187   H         1 RES1   0.0000
   223 H112      5.6731   -1.2094    6.9725   H         1 RES1   0.0000
   224 H113      6.0887    0.3066    6.1877   H         1 RES1   0.0000
   225 H114      3.7874    0.4211    5.2147   H         1 RES1   0.0000
   226 H115      3.3717   -1.0853    6.0275   H         1 RES1   0.0000
   227 H116      5.0769   -2.2861    4.7074   H         1 RES1   0.0000
   228 H117      5.7001   -0.7673    4.0928   H         1 RES1   0.0000
   229 H118      4.5047   -1.4640    2.3042   H         1 RES1   0.0000
   230 H119      3.3172   -0.4187    3.0600   H         1 RES1   0.0000
   231 H120      3.3194   -3.3861    3.6528   H         1 RES1   0.0000
   232 H121      2.7682   -2.8163    2.0763   H         1 RES1   0.0000
   233 H122      0.1647   -2.9644    5.0825   H         1 RES1   0.0000
   234 H123      1.8465   -2.9675    5.5982   H         1 RES1   0.0000
   235 H124      2.2506   -5.0965    4.6713   H         1 RES1   0.0000
   236 H125      1.0894   -4.8547    3.3773   H         1 RES1   0.0000
   237 H126     -0.7459   -5.0373    5.1610   H         1 RES1   0.0000
   238 H127      0.5125   -5.5389    6.2869   H         1 RES1   0.0000
   239 H128      1.1267   -7.3859    4.6679   H         1 RES1   0.0000
   240 H129     -0.2423   -6.9142    3.6653   H         1 RES1   0.0000
   241 H130     -0.2701   -8.1272    6.4573   H         1 RES1   0.0000
   242 H131     -0.8849   -8.8133    4.9564   H         1 RES1   0.0000
   243 H132     -2.0405   -6.4609    6.5111   H         1 RES1   0.0000
   244 H133     -2.6988   -8.0850    6.4213   H         1 RES1   0.0000
   245 H134     -3.2510   -7.8280    4.0739   H         1 RES1   0.0000
   246 H135     -2.4197   -6.2763    3.9806   H         1 RES1   0.0000
   247 H136     -3.9840   -5.4276    5.7974   H         1 RES1   0.0000
   248 H137     -4.9199   -6.9040    5.6012   H         1 RES1   0.0000
   249 H138     -4.2728   -5.0426    3.2973   H         1 RES1   0.0000
   250 H139     -5.6944   -4.8023    4.3248   H         1 RES1   0.0000
   251 H140     -5.1738   -7.3019    2.6551   H         1 RES1   0.0000
   252 H141     -6.2999   -6.0098    2.2470   H         1 RES1   0.0000
   253 H142     -6.5859   -7.0036    3.6647   H         1 RES1   0.0000
   254 H143     -1.1487   -2.5571    3.1056   H         1 RES1   0.0000
   255 H144     -0.3487   -0.8821    5.2716   H         1 RES1   0.0000
   256 H145     -1.6614   -0.0029    4.5225   H         1 RES1   0.0000
   257 H146     -2.0058   -2.9510    5.2066   H         1 RES1   0.0000
   258 H147     -3.2513   -1.7292    5.0030   H         1 RES1   0.0000
   259 H148     -1.2660   -1.7439    7.3046   H         1 RES1   0.0000
   260 H149     -2.9304   -2.3145    7.3706   H         1 RES1   0.0000
   261 H150     -2.5956   -0.6124    7.0847   H         1 RES1   0.0000
   262 H151     -3.2039   -1.2071    2.8981   H         1 RES1   0.0000
   263 H152     -4.2784    0.6944    2.1511   H         1 RES1   0.0000
   264 H153     -2.6203    1.2754    2.1908   H         1 RES1   0.0000
   265 H154     -2.4811    0.6731   -0.3248   H         1 RES1   0.0000
   266 H155     -3.4519    2.0652    0.1793   H         1 RES1   0.0000
   267 H156     -4.5790   -0.6906   -0.5493   H         1 RES1   0.0000
   268 H157     -5.5286    0.7125   -0.0160   H         1 RES1   0.0000
   269 H158     -4.6327    0.7496   -1.5339   H         1 RES1   0.0000
   270 H159     -5.1674   -3.9393   -0.3019   H         1 RES1   0.0000
   271 H160     -3.9163   -4.8239    0.5617   H         1 RES1   0.0000
   272 H161     -2.3913   -3.5401   -1.2818   H         1 RES1   0.0000
   273 H162     -3.8944   -3.6587   -2.1902   H         1 RES1   0.0000
   274 H163     -3.9669   -6.1162   -1.6418   H         1 RES1   0.0000
   275 H164     -2.3714   -5.9925   -0.9156   H         1 RES1   0.0000
   276 H165     -2.7479   -5.2341   -3.8285   H         1 RES1   0.0000
   277 H166     -2.7799   -6.9130   -3.3326   H         1 RES1   0.0000
   278 H167     -0.5353   -6.5194   -2.1957   H         1 RES1   0.0000
   279 H168     -0.4216   -5.0132   -3.1250   H         1 RES1   0.0000
   280 H169     -1.0999   -7.3668   -4.7769   H         1 RES1   0.0000
   281 H170      0.4352   -7.5303   -3.9665   H         1 RES1   0.0000
   282 H171     -0.3702   -5.2063   -5.7584   H         1 RES1   0.0000
   283 H172      0.5224   -6.6326   -6.2694   H         1 RES1   0.0000
   284 H173      1.5216   -4.4956   -4.3285   H         1 RES1   0.0000
   285 H174      1.9377   -4.6996   -6.0281   H         1 RES1   0.0000
   286 H175      2.8884   -7.0038   -5.4006   H         1 RES1   0.0000
   287 H176      2.7214   -6.5118   -3.7204   H         1 RES1   0.0000
   288 H177      4.4447   -5.2185   -5.8798   H         1 RES1   0.0000
   289 H178      4.9776   -5.9759   -4.3851   H         1 RES1   0.0000
   290 H179      4.1250   -4.4300   -4.3397   H         1 RES1   0.0000
   291 H180     -4.4372   -2.6858    2.8809   H         1 RES1   0.0000
   292 H181     -5.3940   -3.7709    1.8946   H         1 RES1   0.0000
   293 H182     -6.5496   -1.9679    0.8074   H         1 RES1   0.0000
   294 H183     -5.5021   -0.7711    1.5639   H         1 RES1   0.0000
   295 H184     -6.6518   -2.2686    3.7187   H         1 RES1   0.0000
   296 H185     -7.9526   -1.8860    2.6052   H         1 RES1   0.0000
   297 H186     -7.9217   -0.0120    4.0144   H         1 RES1   0.0000
   298 H187     -6.9916    0.5510    2.6421   H         1 RES1   0.0000
   299 H188     -4.9336   -0.4268    4.0103   H         1 RES1   0.0000
   300 H189     -6.0426   -0.3808    5.3765   H         1 RES1   0.0000
   301 H190     -6.2828    2.0887    5.0869   H         1 RES1   0.0000
   302 H191     -5.1811    2.0430    3.7101   H         1 RES1   0.0000
   303 H192     -3.4658    0.9257    5.2182   H         1 RES1   0.0000
   304 H193     -4.5527    1.2044    6.5704   H         1 RES1   0.0000
   305 H194     -4.3527    3.6921    6.1288   H         1 RES1   0.0000
   306 H195     -3.1642    3.3263    4.8748   H         1 RES1   0.0000
   307 H196     -1.8623    2.0011    6.6329   H         1 RES1   0.0000
   308 H197     -2.9893    2.6114    7.8351   H         1 RES1   0.0000
   309 H198     -1.1489    4.3616    6.1390   H         1 RES1   0.0000
   310 H199     -0.8998    3.9071    7.8270   H         1 RES1   0.0000
   311 H200     -2.2613    4.9347    7.3840   H         1 RES1   0.0000
   312 C101      8.9239   -5.3263   -0.6501   C.3       1 RES1   0.0000
   313 C102      9.1916   -5.6314    0.8194   C.3       1 RES1   0.0000
   314 C103      8.3229   -4.8099    1.7739   C.3       1 RES1   0.0000
   315 C104      6.8161   -5.0581    1.6485   C.3       1 RES1   0.0000
   316 C105      6.4042   -6.4816    2.0285   C.3       1 RES1   0.0000
   317 C106      4.8931   -6.6505    2.2331   C.3       1 RES1   0.0000
   318 C107      4.1367   -7.2177    1.0305   C.3       1 RES1   0.0000
   319 C108      4.2042   -6.3871   -0.2534   C.3       1 RES1   0.0000
   320 C109      3.5975   -4.9979   -0.0655   C.3       1 RES1   0.0000
   321 C110      3.5997   -4.1448   -1.3459   C.3       1 RES1   0.0000
   322 N5        3.4104   -2.7412   -1.0151   N.am      1 RES1   0.0000
   323 C111      4.6157   -2.0381   -0.5851   C.3       1 RES1   0.0000
   324 C112      5.1674   -1.2014   -1.7476   C.3       1 RES1   0.0000
   325 C113      6.0851   -0.0747   -1.2488   C.3       1 RES1   0.0000
   326 C114      7.5521   -0.1387   -1.6952   C.3       1 RES1   0.0000
   327 C115      7.8854    0.8680   -2.8032   C.3       1 RES1   0.0000
   328 C116      8.3210    2.2522   -2.3113   C.3       1 RES1   0.0000
   329 C117      7.2655    2.9762   -1.4764   C.3       1 RES1   0.0000
   330 C118      7.6158    4.4402   -1.1563   C.3       1 RES1   0.0000
   331 C119      7.9166    4.6886    0.3228   C.3       1 RES1   0.0000
   332 C120      9.1497    3.9303    0.7981   C.3       1 RES1   0.0000
   333 C121      2.2678   -2.0557   -0.9618   C.2       1 RES1   0.0000
   334 O7        2.1904   -0.9622   -0.3738   O.2       1 RES1   0.0000
   335 C122      1.0141   -2.5636   -1.6918   C.3       1 RES1   0.0000
   336 C123      0.3637   -3.7579   -0.9787   C.3       1 RES1   0.0000
   337 C124      0.2949   -3.6160    0.5368   C.3       1 RES1   0.0000
   338 C125     -0.5934   -4.7058    1.1224   C.3       1 RES1   0.0000
   339 O8        0.1107   -1.4467   -1.7262   O.3       1 RES1   0.0000
   340 C126     -0.3701   -1.0185   -3.0038   C.3       1 RES1   0.0000
   341 C127     -1.7871   -1.5537   -3.3219   C.3       1 RES1   0.0000
   342 C128     -1.9152   -2.5385   -4.4838   C.3       1 RES1   0.0000
   343 C129     -3.2812   -2.4037   -5.1476   C.3       1 RES1   0.0000
   344 C130     -0.6080    0.4936   -2.9048   C.2       1 RES1   0.0000
   345 O9       -0.8075    0.9741   -1.7705   O.2       1 RES1   0.0000
   346 N6       -0.7514    1.2188   -4.0113   N.am      1 RES1   0.0000
   347 C131     -1.0599    2.6448   -3.8713   C.3       1 RES1   0.0000
   348 C132     -2.4853    3.0321   -4.2915   C.3       1 RES1   0.0000
   349 C133     -3.6162    2.4150   -3.4643   C.3       1 RES1   0.0000
   350 C134     -4.1092    3.2781   -2.2935   C.3       1 RES1   0.0000
   351 C135     -4.6408    4.6818   -2.6023   C.3       1 RES1   0.0000
   352 C136     -5.8184    4.7636   -3.5775   C.3       1 RES1   0.0000
   353 C137     -7.0408    3.9268   -3.1905   C.3       1 RES1   0.0000
   354 C138     -7.5330    4.1417   -1.7554   C.3       1 RES1   0.0000
   355 C139     -8.1743    2.8718   -1.2056   C.3       1 RES1   0.0000
   356 C140     -8.6073    3.0014    0.2494   C.3       1 RES1   0.0000
   357 C141     -0.8232    0.6363   -5.3476   C.3       1 RES1   0.0000
   358 C142     -0.1457    1.4249   -6.4679   C.3       1 RES1   0.0000
   359 C143     -0.2546    0.6831   -7.8082   C.3       1 RES1   0.0000
   360 C144     -1.6711    0.6301   -8.3857   C.3       1 RES1   0.0000
   361 C145     -1.7137   -0.2203   -9.6538   C.3       1 RES1   0.0000
   362 C146     -3.0603   -0.1730  -10.3820   C.3       1 RES1   0.0000
   363 C147     -4.1189   -1.1706   -9.8999   C.3       1 RES1   0.0000
   364 C148     -4.9169   -0.7429   -8.6675   C.3       1 RES1   0.0000
   365 C149     -6.0133   -1.7622   -8.3630   C.3       1 RES1   0.0000
   366 C150     -6.8379   -1.3989   -7.1349   C.3       1 RES1   0.0000
   367 H201      9.6294   -5.8626   -1.2788   H         1 RES1   0.0000
   368 H202      9.0364   -4.2607   -0.8439   H         1 RES1   0.0000
   369 H203      7.9209   -5.6318   -0.9412   H         1 RES1   0.0000
   370 H204     10.2365   -5.4022    1.0365   H         1 RES1   0.0000
   371 H205      9.0471   -6.6961    1.0071   H         1 RES1   0.0000
   372 H206      8.5150   -3.7481    1.5897   H         1 RES1   0.0000
   373 H207      8.6312   -5.0231    2.8005   H         1 RES1   0.0000
   374 H208      6.5045   -4.8391    0.6251   H         1 RES1   0.0000
   375 H209      6.3082   -4.3490    2.3135   H         1 RES1   0.0000
   376 H210      6.9216   -6.7464    2.9525   H         1 RES1   0.0000
   377 H211      6.7416   -7.1767    1.2602   H         1 RES1   0.0000
   378 H212      4.4542   -5.6985    2.5392   H         1 RES1   0.0000
   379 H213      4.7316   -7.3459    3.0556   H         1 RES1   0.0000
   380 H214      3.0882   -7.3470    1.3131   H         1 RES1   0.0000
   381 H215      4.5348   -8.2087    0.8123   H         1 RES1   0.0000
   382 H216      3.6543   -6.9141   -1.0349   H         1 RES1   0.0000
   383 H217      5.2374   -6.3037   -0.5859   H         1 RES1   0.0000
   384 H218      4.1602   -4.4715    0.7074   H         1 RES1   0.0000
   385 H219      2.5779   -5.1319    0.2925   H         1 RES1   0.0000
   386 H220      2.8454   -4.4986   -2.0476   H         1 RES1   0.0000
   387 H221      4.5738   -4.2439   -1.8285   H         1 RES1   0.0000
   388 H222      5.3564   -2.7577   -0.2315   H         1 RES1   0.0000
   389 H223      4.3362   -1.3800    0.2392   H         1 RES1   0.0000
   390 H224      4.3036   -0.7801   -2.2760   H         1 RES1   0.0000
   391 H225      5.6954   -1.8468   -2.4506   H         1 RES1   0.0000
   392 H226      6.0494   -0.0611   -0.1602   H         1 RES1   0.0000
   393 H227      5.6658    0.8635   -1.5932   H         1 RES1   0.0000
   394 H228      7.7816   -1.1454   -2.0451   H         1 RES1   0.0000
   395 H229      8.1973    0.0577   -0.8387   H         1 RES1   0.0000
   396 H230      8.7035    0.4771   -3.4034   H         1 RES1   0.0000
   397 H231      7.0236    0.9644   -3.4666   H         1 RES1   0.0000
   398 H232      8.5717    2.8624   -3.1858   H         1 RES1   0.0000
   399 H233      9.2320    2.1550   -1.7203   H         1 RES1   0.0000
   400 H234      7.1262    2.4203   -0.5466   H         1 RES1   0.0000
   401 H235      6.3164    2.9507   -2.0212   H         1 RES1   0.0000
   402 H236      6.7849    5.0895   -1.4574   H         1 RES1   0.0000
   403 H237      8.4857    4.7391   -1.7380   H         1 RES1   0.0000
   404 H238      7.0402    4.4161    0.9193   H         1 RES1   0.0000
   405 H239      8.0879    5.7567    0.4692   H         1 RES1   0.0000
   406 H240      9.0154    2.8555    0.6988   H         1 RES1   0.0000
   407 H241      9.3607    4.1562    1.8399   H         1 RES1   0.0000
   408 H242     10.0080    4.2332    0.2062   H         1 RES1   0.0000
   409 H243      1.2837   -2.8475   -2.7193   H         1 RES1   0.0000
   410 H244     -0.6514   -3.8309   -1.3580   H         1 RES1   0.0000
   411 H245      0.8842   -4.6812   -1.2311   H         1 RES1   0.0000
   412 H246     -0.0864   -2.6232    0.7946   H         1 RES1   0.0000
   413 H247      1.2970   -3.6966    0.9588   H         1 RES1   0.0000
   414 H248     -1.6007   -4.6190    0.7386   H         1 RES1   0.0000
   415 H249     -0.6446   -4.6423    2.2048   H         1 RES1   0.0000
   416 H250     -0.2163   -5.6939    0.8662   H         1 RES1   0.0000
   417 H251      0.3824   -1.2696   -3.7620   H         1 RES1   0.0000
   418 H252     -2.1766   -1.9688   -2.3971   H         1 RES1   0.0000
   419 H253     -2.4304   -0.6992   -3.5418   H         1 RES1   0.0000
   420 H254     -1.7762   -3.5571   -4.1313   H         1 RES1   0.0000
   421 H255     -1.1366   -2.3537   -5.2228   H         1 RES1   0.0000
   422 H256     -4.0733   -2.7006   -4.4646   H         1 RES1   0.0000
   423 H257     -3.3462   -3.0168   -6.0426   H         1 RES1   0.0000
   424 H258     -3.4652   -1.3734   -5.4445   H         1 RES1   0.0000
   425 H259     -0.3491    3.1901   -4.5032   H         1 RES1   0.0000
   426 H260     -0.8672    2.8979   -2.8264   H         1 RES1   0.0000
   427 H261     -2.6093    2.7556   -5.3374   H         1 RES1   0.0000
   428 H262     -2.5720    4.1133   -4.2404   H         1 RES1   0.0000
   429 H263     -3.2635    1.4559   -3.0669   H         1 RES1   0.0000
   430 H264     -4.4674    2.2224   -4.1226   H         1 RES1   0.0000
   431 H265     -3.2963    3.3653   -1.5673   H         1 RES1   0.0000
   432 H266     -4.9153    2.7324   -1.8061   H         1 RES1   0.0000
   433 H267     -3.8409    5.3339   -2.9651   H         1 RES1   0.0000
   434 H268     -4.9587    5.1130   -1.6475   H         1 RES1   0.0000
   435 H269     -5.4897    4.4564   -4.5704   H         1 RES1   0.0000
   436 H270     -6.1170    5.8121   -3.6453   H         1 RES1   0.0000
   437 H271     -6.8155    2.8665   -3.3406   H         1 RES1   0.0000
   438 H272     -7.8501    4.1740   -3.8784   H         1 RES1   0.0000
   439 H273     -8.2516    4.9631   -1.7370   H         1 RES1   0.0000
   440 H274     -6.7023    4.4185   -1.1077   H         1 RES1   0.0000
   441 H275     -7.4544    2.0506   -1.2913   H         1 RES1   0.0000
   442 H276     -9.0356    2.6138   -1.8243   H         1 RES1   0.0000
   443 H277     -7.7716    3.2968    0.8860   H         1 RES1   0.0000
   444 H278     -8.9944    2.0513    0.6120   H         1 RES1   0.0000
   445 H279     -9.3893    3.7491    0.3439   H         1 RES1   0.0000
   446 H280     -1.8832    0.5124   -5.5921   H         1 RES1   0.0000
   447 H281     -0.3812   -0.3573   -5.3495   H         1 RES1   0.0000
   448 H282      0.9109    1.5574   -6.2293   H         1 RES1   0.0000
   449 H283     -0.6014    2.4053   -6.5733   H         1 RES1   0.0000
   450 H284      0.1332   -0.3328   -7.6913   H         1 RES1   0.0000
   451 H285      0.3864    1.1969   -8.5281   H         1 RES1   0.0000
   452 H286     -1.9923    1.6455   -8.6324   H         1 RES1   0.0000
   453 H287     -2.3666    0.2222   -7.6520   H         1 RES1   0.0000
   454 H288     -1.4686   -1.2582   -9.4149   H         1 RES1   0.0000
   455 H289     -0.9400    0.1518  -10.3289   H         1 RES1   0.0000
   456 H290     -2.8661   -0.3933  -11.4312   H         1 RES1   0.0000
   457 H291     -3.4707    0.8373  -10.3324   H         1 RES1   0.0000
   458 H292     -3.6488   -2.1394   -9.7088   H         1 RES1   0.0000
   459 H293     -4.8319   -1.3156  -10.7156   H         1 RES1   0.0000
   460 H294     -5.3679    0.2349   -8.8523   H         1 RES1   0.0000
   461 H295     -4.2635   -0.6499   -7.7964   H         1 RES1   0.0000
   462 H296     -5.5539   -2.7427   -8.2178   H         1 RES1   0.0000
   463 H297     -6.6781   -1.8356   -9.2244   H         1 RES1   0.0000
   464 H298     -6.2193   -1.3614   -6.2392   H         1 RES1   0.0000
   465 H299     -7.6182   -2.1380   -6.9771   H         1 RES1   0.0000
   466 H300     -7.3140   -0.4306   -7.2691   H         1 RES1   0.0000
@<TRIPOS>BOND
     1     1    24    1
     2     1    29    1
     3     1    35    1
     4     1   179    1
     5     1   184    1
     6     1   190    1
     7     1   334    1
     8     1   339    1
     9     1   345    1
    10     2     3    1
    11     2    57    1
    12     2    58    1
    13     2    59    1
    14     3     4    1
    15     3    60    1
    16     3    61    1
    17     4     5    1
    18     4    62    1
    19     4    63    1
    20     5     6    1
    21     5    64    1
    22     5    65    1
    23     6     7    1
    24     6    66    1
    25     6    67    1
    26     7     8    1
    27     7    68    1
    28     7    69    1
    29     8     9    1
    30     8    70    1
    31     8    71    1
    32     9    10    1
    33     9    72    1
    34     9    73    1
    35    10    11    1
    36    10    74    1
    37    10    75    1
    38    11    12    1
    39    11    76    1
    40    11    77    1
    41    12    13    1
    42    12    23    1
    43    13    14    1
    44    13    78    1
    45    13    79    1
    46    14    15    1
    47    14    80    1
    48    14    81    1
    49    15    16    1
    50    15    82    1
    51    15    83    1
    52    16    17    1
    53    16    84    1
    54    16    85    1
    55    17    18    1
    56    17    86    1
    57    17    87    1
    58    18    19    1
    59    18    88    1
    60    18    89    1
    61    19    20    1
    62    19    90    1
    63    19    91    1
    64    20    21    1
    65    20    92    1
    66    20    93    1
    67    21    22    1
    68    21    94    1
    69    21    95    1
    70    22    96    1
    71    22    97    1
    72    22    98    1
    73    23    24    2
    74    23    25    1
    75    25    26    1
    76    25    29    1
    77    25    99    1
    78    26    27    1
    79    26   100    1
    80    26   101    1
    81    27    28    1
    82    27   102    1
    83    27   103    1
    84    28   104    1
    85    28   105    1
    86    28   106    1
    87    29    30    1
    88    30    31    1
    89    30    34    1
    90    30   107    1
    91    31    32    1
    92    31   108    1
    93    31   109    1
    94    32    33    1
    95    32   110    1
    96    32   111    1
    97    33   112    1
    98    33   113    1
    99    33   114    1
   100    34    35    2
   101    34    36    1
   102    36    37    1
   103    36    47    1
   104    37    38    1
   105    37   115    1
   106    37   116    1
   107    38    39    1
   108    38   117    1
   109    38   118    1
   110    39    40    1
   111    39   119    1
   112    39   120    1
   113    40    41    1
   114    40   121    1
   115    40   122    1
   116    41    42    1
   117    41   123    1
   118    41   124    1
   119    42    43    1
   120    42   125    1
   121    42   126    1
   122    43    44    1
   123    43   127    1
   124    43   128    1
   125    44    45    1
   126    44   129    1
   127    44   130    1
   128    45    46    1
   129    45   131    1
   130    45   132    1
   131    46   133    1
   132    46   134    1
   133    46   135    1
   134    47    48    1
   135    47   136    1
   136    47   137    1
   137    48    49    1
   138    48   138    1
   139    48   139    1
   140    49    50    1
   141    49   140    1
   142    49   141    1
   143    50    51    1
   144    50   142    1
   145    50   143    1
   146    51    52    1
   147    51   144    1
   148    51   145    1
   149    52    53    1
   150    52   146    1
   151    52   147    1
   152    53    54    1
   153    53   148    1
   154    53   149    1
   155    54    55    1
   156    54   150    1
   157    54   151    1
   158    55    56    1
   159    55   152    1
   160    55   153    1
   161    56   154    1
   162    56   155    1
   163    56   156    1
   164   157   158    1
   165   157   212    1
   166   157   213    1
   167   157   214    1
   168   158   159    1
   169   158   215    1
   170   158   216    1
   171   159   160    1
   172   159   217    1
   173   159   218    1
   174   160   161    1
   175   160   219    1
   176   160   220    1
   177   161   162    1
   178   161   221    1
   179   161   222    1
   180   162   163    1
   181   162   223    1
   182   162   224    1
   183   163   164    1
   184   163   225    1
   185   163   226    1
   186   164   165    1
   187   164   227    1
   188   164   228    1
   189   165   166    1
   190   165   229    1
   191   165   230    1
   192   166   167    1
   193   166   231    1
   194   166   232    1
   195   167   168    1
   196   167   178    1
   197   168   169    1
   198   168   233    1
   199   168   234    1
   200   169   170    1
   201   169   235    1
   202   169   236    1
   203   170   171    1
   204   170   237    1
   205   170   238    1
   206   171   172    1
   207   171   239    1
   208   171   240    1
   209   172   173    1
   210   172   241    1
   211   172   242    1
   212   173   174    1
   213   173   243    1
   214   173   244    1
   215   174   175    1
   216   174   245    1
   217   174   246    1
   218   175   176    1
   219   175   247    1
   220   175   248    1
   221   176   177    1
   222   176   249    1
   223   176   250    1
   224   177   251    1
   225   177   252    1
   226   177   253    1
   227   178   179    2
   228   178   180    1
   229   180   181    1
   230   180   184    1
   231   180   254    1
   232   181   182    1
   233   181   255    1
   234   181   256    1
   235   182   183    1
   236   182   257    1
   237   182   258    1
   238   183   259    1
   239   183   260    1
   240   183   261    1
   241   184   185    1
   242   185   186    1
   243   185   189    1
   244   185   262    1
   245   186   187    1
   246   186   263    1
   247   186   264    1
   248   187   188    1
   249   187   265    1
   250   187   266    1
   251   188   267    1
   252   188   268    1
   253   188   269    1
   254   189   190    2
   255   189   191    1
   256   191   192    1
   257   191   202    1
   258   192   193    1
   259   192   270    1
   260   192   271    1
   261   193   194    1
   262   193   272    1
   263   193   273    1
   264   194   195    1
   265   194   274    1
   266   194   275    1
   267   195   196    1
   268   195   276    1
   269   195   277    1
   270   196   197    1
   271   196   278    1
   272   196   279    1
   273   197   198    1
   274   197   280    1
   275   197   281    1
   276   198   199    1
   277   198   282    1
   278   198   283    1
   279   199   200    1
   280   199   284    1
   281   199   285    1
   282   200   201    1
   283   200   286    1
   284   200   287    1
   285   201   288    1
   286   201   289    1
   287   201   290    1
   288   202   203    1
   289   202   291    1
   290   202   292    1
   291   203   204    1
   292   203   293    1
   293   203   294    1
   294   204   205    1
   295   204   295    1
   296   204   296    1
   297   205   206    1
   298   205   297    1
   299   205   298    1
   300   206   207    1
   301   206   299    1
   302   206   300    1
   303   207   208    1
   304   207   301    1
   305   207   302    1
   306   208   209    1
   307   208   303    1
   308   208   304    1
   309   209   210    1
   310   209   305    1
   311   209   306    1
   312   210   211    1
   313   210   307    1
   314   210   308    1
   315   211   309    1
   316   211   310    1
   317   211   311    1
   318   312   313    1
   319   312   367    1
   320   312   368    1
   321   312   369    1
   322   313   314    1
   323   313   370    1
   324   313   371    1
   325   314   315    1
   326   314   372    1
   327   314   373    1
   328   315   316    1
   329   315   374    1
   330   315   375    1
   331   316   317    1
   332   316   376    1
   333   316   377    1
   334   317   318    1
   335   317   378    1
   336   317   379    1
   337   318   319    1
   338   318   380    1
   339   318   381    1
   340   319   320    1
   341   319   382    1
   342   319   383    1
   343   320   321    1
   344   320   384    1
   345   320   385    1
   346   321   322    1
   347   321   386    1
   348   321   387    1
   349   322   323    1
   350   322   333    1
   351   323   324    1
   352   323   388    1
   353   323   389    1
   354   324   325    1
   355   324   390    1
   356   324   391    1
   357   325   326    1
   358   325   392    1
   359   325   393    1
   360   326   327    1
   361   326   394    1
   362   326   395    1
   363   327   328    1
   364   327   396    1
   365   327   397    1
   366   328   329    1
   367   328   398    1
   368   328   399    1
   369   329   330    1
   370   329   400    1
   371   329   401    1
   372   330   331    1
   373   330   402    1
   374   330   403    1
   375   331   332    1
   376   331   404    1
   377   331   405    1
   378   332   406    1
   379   332   407    1
   380   332   408    1
   381   333   334    2
   382   333   335    1
   383   335   336    1
   384   335   339    1
   385   335   409    1
   386   336   337    1
   387   336   410    1
   388   336   411    1
   389   337   338    1
   390   337   412    1
   391   337   413    1
   392   338   414    1
   393   338   415    1
   394   338   416    1
   395   339   340    1
   396   340   341    1
   397   340   344    1
   398   340   417    1
   399   341   342    1
   400   341   418    1
   401   341   419    1
   402   342   343    1
   403   342   420    1
   404   342   421    1
   405   343   422    1
   406   343   423    1
   407   343   424    1
   408   344   345    2
   409   344   346    1
   410   346   347    1
   411   346   357    1
   412   347   348    1
   413   347   425    1
   414   347   426    1
   415   348   349    1
   416   348   427    1
   417   348   428    1
   418   349   350    1
   419   349   429    1
   420   349   430    1
   421   350   351    1
   422   350   431    1
   423   350   432    1
   424   351   352    1
   425   351   433    1
   426   351   434    1
   427   352   353    1
   428   352   435    1
   429   352   436    1
   430   353   354    1
   431   353   437    1
   432   353   438    1
   433   354   355    1
   434   354   439    1
   435   354   440    1
   436   355   356    1
   437   355   441    1
   438   355   442    1
   439   356   443    1
   440   356   444    1
   441   356   445    1
   442   357   358    1
   443   357   446    1
   444   357   447    1
   445   358   359    1
   446   358   448    1
   447   358   449    1
   448   359   360    1
   449   359   450    1
   450   359   451    1
   451   360   361    1
   452   360   452    1
   453   360   453    1
   454   361   362    1
   455   361   454    1
   456   361   455    1
   457   362   363    1
   458   362   456    1
   459   362   457    1
   460   363   364    1
   461   363   458    1
   462   363   459    1
   463   364   365    1
   464   364   460    1
   465   364   461    1
   466   365   366    1
   467   365   462    1
   468   365   463    1
   469   366   464    1
   470   366   465    1
   471   366   466    1
@<TRIPOS>SUBSTRUCTURE
     1 RES1      466 GROUP             0 ****  ****    0  
