@<TRIPOS>MOLECULE
am_c3_9H2O_c0_0_nunpairedes_0_charge_3 Charge: 3 Unpaired_Electrons: 2 XTB_Unpaired_Electrons: 0 XTB_Charge: 3
   284   291     1     0     0
SMALL
NoCharges
****
Generated from Architector

@<TRIPOS>ATOM
     1 Pr1       0.0501    0.0122   -0.0952   Pr        1 RES1   0.0000
     2 C1        0.0208    9.0651   -4.5564   C.3       1 RES1   0.0000
     3 C2       -0.7739    8.0405   -3.7588   C.3       1 RES1   0.0000
     4 C3        0.0634    7.3524   -2.6800   C.3       1 RES1   0.0000
     5 C4        0.4447    8.2871   -1.5354   C.3       1 RES1   0.0000
     6 C5        0.9197    7.5818   -0.2605   C.3       1 RES1   0.0000
     7 C6        2.3817    7.1323   -0.2533   C.3       1 RES1   0.0000
     8 C7        2.6943    5.8033   -0.9530   C.3       1 RES1   0.0000
     9 C8        2.4569    4.5407   -0.1048   C.3       1 RES1   0.0000
    10 P1        0.9513    3.4902   -0.2900   P.3       1 RES1   0.0000
    11 O1        1.2059    2.1358    0.2896   O.2       1 RES1   0.0000
    12 C9        0.6511    3.3540   -2.1024   C.3       1 RES1   0.0000
    13 C10      -0.7010    2.7345   -2.3438   C.2       1 RES1   0.0000
    14 O2       -1.0641    1.8393   -1.5541   O.2       1 RES1   0.0000
    15 N1       -1.4471    3.1435   -3.3767   N.am      1 RES1   0.0000
    16 C11      -1.0846    4.1965   -4.3165   C.3       1 RES1   0.0000
    17 C12      -0.3349    3.8081   -5.6092   C.3       1 RES1   0.0000
    18 C13       0.9705    3.0638   -5.3587   C.3       1 RES1   0.0000
    19 C14      -1.1789    3.0226   -6.6126   C.3       1 RES1   0.0000
    20 C15      -2.6545    2.4010   -3.7064   C.3       1 RES1   0.0000
    21 C16      -4.0229    3.0613   -3.4748   C.3       1 RES1   0.0000
    22 C17      -4.2999    4.3640   -4.2184   C.3       1 RES1   0.0000
    23 C18      -4.2925    3.2536   -1.9926   C.3       1 RES1   0.0000
    24 C19      -0.4146    4.3478    0.5347   C.ar      1 RES1   0.0000
    25 C20      -0.2450    4.5309    1.9049   C.ar      1 RES1   0.0000
    26 C21      -1.1358    5.3137    2.6178   C.ar      1 RES1   0.0000
    27 C22      -2.1898    5.9333    1.9624   C.ar      1 RES1   0.0000
    28 C23      -2.3542    5.7528    0.5968   C.ar      1 RES1   0.0000
    29 C24      -1.4713    4.9600   -0.1215   C.ar      1 RES1   0.0000
    30 H1       -0.5884    9.4857   -5.3517   H         1 RES1   0.0000
    31 H2        0.8975    8.6056   -5.0082   H         1 RES1   0.0000
    32 H3        0.3480    9.8821   -3.9218   H         1 RES1   0.0000
    33 H4       -1.1684    7.2913   -4.4513   H         1 RES1   0.0000
    34 H5       -1.6269    8.5298   -3.2882   H         1 RES1   0.0000
    35 H6        0.9590    6.9430   -3.1495   H         1 RES1   0.0000
    36 H7       -0.5172    6.5303   -2.2560   H         1 RES1   0.0000
    37 H8       -0.4420    8.8710   -1.2852   H         1 RES1   0.0000
    38 H9        1.2087    8.9873   -1.8653   H         1 RES1   0.0000
    39 H10       0.2754    6.7298   -0.0544   H         1 RES1   0.0000
    40 H11       0.7929    8.2835    0.5643   H         1 RES1   0.0000
    41 H12       2.7281    7.0516    0.7797   H         1 RES1   0.0000
    42 H13       2.9768    7.9162   -0.7233   H         1 RES1   0.0000
    43 H14       3.7609    5.8122   -1.1844   H         1 RES1   0.0000
    44 H15       2.1651    5.7510   -1.9023   H         1 RES1   0.0000
    45 H16       2.5117    4.8101    0.9541   H         1 RES1   0.0000
    46 H17       3.2480    3.8069   -0.2920   H         1 RES1   0.0000
    47 H18       1.3998    2.6135   -2.4053   H         1 RES1   0.0000
    48 H19       0.8171    4.2944   -2.6116   H         1 RES1   0.0000
    49 H20      -0.5071    4.9576   -3.7972   H         1 RES1   0.0000
    50 H21      -2.0118    4.6646   -4.6313   H         1 RES1   0.0000
    51 H22      -0.0900    4.7660   -6.0811   H         1 RES1   0.0000
    52 H23       0.7738    2.1107   -4.8673   H         1 RES1   0.0000
    53 H24       1.6521    3.6600   -4.7571   H         1 RES1   0.0000
    54 H25       1.4620    2.8607   -6.3080   H         1 RES1   0.0000
    55 H26      -1.3021    1.9824   -6.3156   H         1 RES1   0.0000
    56 H27      -0.6777    3.0272   -7.5777   H         1 RES1   0.0000
    57 H28      -2.1585    3.4730   -6.7484   H         1 RES1   0.0000
    58 H29      -2.6215    1.5029   -3.0884   H         1 RES1   0.0000
    59 H30      -2.5735    2.1111   -4.7513   H         1 RES1   0.0000
    60 H31      -4.7389    2.3250   -3.8536   H         1 RES1   0.0000
    61 H32      -3.7654    5.2037   -3.7790   H         1 RES1   0.0000
    62 H33      -5.3620    4.5857   -4.1385   H         1 RES1   0.0000
    63 H34      -4.0619    4.2857   -5.2763   H         1 RES1   0.0000
    64 H35      -3.5750    3.9369   -1.5511   H         1 RES1   0.0000
    65 H36      -4.2179    2.3017   -1.4766   H         1 RES1   0.0000
    66 H37      -5.2873    3.6657   -1.8484   H         1 RES1   0.0000
    67 H38       0.6174    4.0845    2.3898   H         1 RES1   0.0000
    68 H39      -0.9943    5.4653    3.6762   H         1 RES1   0.0000
    69 H40      -2.8819    6.5598    2.5072   H         1 RES1   0.0000
    70 H41      -3.1688    6.2496    0.0937   H         1 RES1   0.0000
    71 H42      -1.5800    4.8305   -1.1905   H         1 RES1   0.0000
    72 C25       1.3577   -4.1716    9.0372   C.3       1 RES1   0.0000
    73 C26       1.2039   -4.2158    7.5231   C.3       1 RES1   0.0000
    74 C27       1.8580   -3.0215    6.8274   C.3       1 RES1   0.0000
    75 C28       3.3686   -2.9658    7.0403   C.3       1 RES1   0.0000
    76 C29       4.1415   -2.0856    6.0544   C.3       1 RES1   0.0000
    77 C30       4.0088   -0.5717    6.2322   C.3       1 RES1   0.0000
    78 C31       2.7525    0.0938    5.6547   C.3       1 RES1   0.0000
    79 C32       2.7608    0.3595    4.1368   C.3       1 RES1   0.0000
    80 P2        1.8998   -0.7715    2.9546   P.3       1 RES1   0.0000
    81 O3        1.7385   -0.1040    1.6314   O.2       1 RES1   0.0000
    82 C33       0.2828   -1.0167    3.8092   C.3       1 RES1   0.0000
    83 C34      -0.7772   -1.6865    2.9695   C.2       1 RES1   0.0000
    84 O4       -0.8421   -1.4492    1.7521   O.2       1 RES1   0.0000
    85 N2       -1.6536   -2.4988    3.5762   N.am      1 RES1   0.0000
    86 C35      -1.7371   -2.7238    5.0112   C.3       1 RES1   0.0000
    87 C36      -2.5859   -1.7089    5.8102   C.3       1 RES1   0.0000
    88 C37      -2.0417   -0.2821    5.7983   C.3       1 RES1   0.0000
    89 C38      -4.0514   -1.6699    5.3825   C.3       1 RES1   0.0000
    90 C39      -2.7029   -3.1093    2.7683   C.3       1 RES1   0.0000
    91 C40      -2.3685   -4.4850    2.1696   C.3       1 RES1   0.0000
    92 C41      -2.1032   -5.5650    3.2167   C.3       1 RES1   0.0000
    93 C42      -1.2035   -4.4003    1.1942   C.3       1 RES1   0.0000
    94 C43       2.8280   -2.3266    2.8749   C.ar      1 RES1   0.0000
    95 C44       4.1865   -2.1728    2.5944   C.ar      1 RES1   0.0000
    96 C45       5.0335   -3.2674    2.6342   C.ar      1 RES1   0.0000
    97 C46       4.5270   -4.5206    2.9452   C.ar      1 RES1   0.0000
    98 C47       3.1735   -4.6722    3.2096   C.ar      1 RES1   0.0000
    99 C48       2.3160   -3.5800    3.1763   C.ar      1 RES1   0.0000
   100 H43       0.8031   -4.9837    9.4999   H         1 RES1   0.0000
   101 H44       0.9783   -3.2330    9.4354   H         1 RES1   0.0000
   102 H45       2.3997   -4.2721    9.3251   H         1 RES1   0.0000
   103 H46       0.1371   -4.2341    7.2805   H         1 RES1   0.0000
   104 H47       1.6430   -5.1391    7.1429   H         1 RES1   0.0000
   105 H48       1.3922   -2.1095    7.2031   H         1 RES1   0.0000
   106 H49       1.6672   -3.1002    5.7542   H         1 RES1   0.0000
   107 H50       3.7542   -3.9817    6.9355   H         1 RES1   0.0000
   108 H51       3.5844   -2.6393    8.0550   H         1 RES1   0.0000
   109 H52       3.8698   -2.3603    5.0405   H         1 RES1   0.0000
   110 H53       5.1974   -2.3312    6.1760   H         1 RES1   0.0000
   111 H54       4.8773   -0.0833    5.7841   H         1 RES1   0.0000
   112 H55       4.0445   -0.3547    7.3006   H         1 RES1   0.0000
   113 H56       2.6778    1.0747    6.1277   H         1 RES1   0.0000
   114 H57       1.8693   -0.4667    5.9521   H         1 RES1   0.0000
   115 H58       3.7907    0.4789    3.7889   H         1 RES1   0.0000
   116 H59       2.2453    1.3071    3.9269   H         1 RES1   0.0000
   117 H60      -0.0379    0.0101    4.0074   H         1 RES1   0.0000
   118 H61       0.4611   -1.5108    4.7572   H         1 RES1   0.0000
   119 H62      -0.7395   -2.7639    5.4489   H         1 RES1   0.0000
   120 H63      -2.1763   -3.7106    5.1519   H         1 RES1   0.0000
   121 H64      -2.5494   -2.0697    6.8427   H         1 RES1   0.0000
   122 H65      -2.0964    0.1508    4.8001   H         1 RES1   0.0000
   123 H66      -1.0200   -0.2366    6.1623   H         1 RES1   0.0000
   124 H67      -2.6471    0.3385    6.4542   H         1 RES1   0.0000
   125 H68      -4.1631   -1.2477    4.3850   H         1 RES1   0.0000
   126 H69      -4.6047   -1.0340    6.0686   H         1 RES1   0.0000
   127 H70      -4.5063   -2.6564    5.4119   H         1 RES1   0.0000
   128 H71      -2.9002   -2.4083    1.9525   H         1 RES1   0.0000
   129 H72      -3.5860   -3.1997    3.3966   H         1 RES1   0.0000
   130 H73      -3.2600   -4.7927    1.6137   H         1 RES1   0.0000
   131 H74      -1.2140   -5.3504    3.8052   H         1 RES1   0.0000
   132 H75      -1.9444   -6.5169    2.7148   H         1 RES1   0.0000
   133 H76      -2.9520   -5.6858    3.8863   H         1 RES1   0.0000
   134 H77      -0.2710   -4.2275    1.7221   H         1 RES1   0.0000
   135 H78      -1.3232   -3.5837    0.4838   H         1 RES1   0.0000
   136 H79      -1.1127   -5.3324    0.6457   H         1 RES1   0.0000
   137 H80       4.5687   -1.1837    2.3722   H         1 RES1   0.0000
   138 H81       6.0863   -3.1355    2.4434   H         1 RES1   0.0000
   139 H82       5.1809   -5.3790    2.9948   H         1 RES1   0.0000
   140 H83       2.7929   -5.6477    3.4658   H         1 RES1   0.0000
   141 H84       1.2599   -3.6931    3.3966   H         1 RES1   0.0000
   142 C49       1.5928   -9.4032   -4.3467   C.3       1 RES1   0.0000
   143 C50       2.5430   -8.7417   -3.3576   C.3       1 RES1   0.0000
   144 C51       2.9544   -7.3384   -3.7879   C.3       1 RES1   0.0000
   145 C52       3.8102   -6.6571   -2.7256   C.3       1 RES1   0.0000
   146 C53       4.1627   -5.2213   -3.1016   C.3       1 RES1   0.0000
   147 C54       5.1364   -4.5501   -2.1321   C.3       1 RES1   0.0000
   148 C55       4.5831   -4.2484   -0.7377   C.3       1 RES1   0.0000
   149 C56       3.7534   -2.9626   -0.6112   C.3       1 RES1   0.0000
   150 P3        1.9742   -2.9497   -1.1115   P.3       1 RES1   0.0000
   151 O5        1.1376   -2.1838   -0.1360   O.2       1 RES1   0.0000
   152 C57       1.8411   -2.1706   -2.7935   C.3       1 RES1   0.0000
   153 C58       2.2873   -0.7239   -2.6987   C.2       1 RES1   0.0000
   154 O6        1.8470   -0.0143   -1.7761   O.2       1 RES1   0.0000
   155 N3        3.1427   -0.2500   -3.6085   N.am      1 RES1   0.0000
   156 C59       3.4019   -0.9543   -4.8581   C.3       1 RES1   0.0000
   157 C60       4.5925   -1.9185   -4.7845   C.3       1 RES1   0.0000
   158 C61       5.9135   -1.1651   -4.6837   C.3       1 RES1   0.0000
   159 C62       4.5791   -2.8328   -6.0050   C.3       1 RES1   0.0000
   160 C63       3.5811    1.1448   -3.6081   C.3       1 RES1   0.0000
   161 C64       4.1391    1.7644   -2.3243   C.3       1 RES1   0.0000
   162 C65       5.3947    1.0672   -1.8145   C.3       1 RES1   0.0000
   163 C66       4.5094    3.2026   -2.6946   C.3       1 RES1   0.0000
   164 C67       1.3519   -4.6562   -1.1908   C.ar      1 RES1   0.0000
   165 C68       1.5698   -5.3635   -0.0126   C.ar      1 RES1   0.0000
   166 C69       1.0870   -6.6515    0.1308   C.ar      1 RES1   0.0000
   167 C70       0.3485   -7.2289   -0.8912   C.ar      1 RES1   0.0000
   168 C71       0.1225   -6.5199   -2.0612   C.ar      1 RES1   0.0000
   169 C72       0.6397   -5.2425   -2.2281   C.ar      1 RES1   0.0000
   170 H85       1.3254  -10.4016   -4.0075   H         1 RES1   0.0000
   171 H86       2.0577   -9.4924   -5.3252   H         1 RES1   0.0000
   172 H87       0.6787   -8.8214   -4.4556   H         1 RES1   0.0000
   173 H88       3.4332   -9.3592   -3.2510   H         1 RES1   0.0000
   174 H89       2.0643   -8.6907   -2.3782   H         1 RES1   0.0000
   175 H90       2.0601   -6.7422   -3.9736   H         1 RES1   0.0000
   176 H91       3.5063   -7.3963   -4.7244   H         1 RES1   0.0000
   177 H92       4.7257   -7.2291   -2.5858   H         1 RES1   0.0000
   178 H93       3.2658   -6.6737   -1.7821   H         1 RES1   0.0000
   179 H94       3.2406   -4.6425   -3.1735   H         1 RES1   0.0000
   180 H95       4.6236   -5.2325   -4.0896   H         1 RES1   0.0000
   181 H96       5.5168   -3.6177   -2.5563   H         1 RES1   0.0000
   182 H97       5.9959   -5.2127   -2.0253   H         1 RES1   0.0000
   183 H98       5.4382   -4.1246   -0.0682   H         1 RES1   0.0000
   184 H99       4.0161   -5.1069   -0.3786   H         1 RES1   0.0000
   185 H100      4.2409   -2.1439   -1.1502   H         1 RES1   0.0000
   186 H101      3.7118   -2.6731    0.4438   H         1 RES1   0.0000
   187 H102      0.7674   -2.1770   -3.0089   H         1 RES1   0.0000
   188 H103      2.3847   -2.7592   -3.5218   H         1 RES1   0.0000
   189 H104      3.6053   -0.2056   -5.6239   H         1 RES1   0.0000
   190 H105      2.4956   -1.4842   -5.1614   H         1 RES1   0.0000
   191 H106      4.4812   -2.5288   -3.8870   H         1 RES1   0.0000
   192 H107      6.0586   -0.5180   -5.5445   H         1 RES1   0.0000
   193 H108      6.7470   -1.8606   -4.6487   H         1 RES1   0.0000
   194 H109      5.9460   -0.5644   -3.7825   H         1 RES1   0.0000
   195 H110      4.6752   -2.2476   -6.9163   H         1 RES1   0.0000
   196 H111      3.6511   -3.4001   -6.0564   H         1 RES1   0.0000
   197 H112      5.4086   -3.5347   -5.9653   H         1 RES1   0.0000
   198 H113      2.7374    1.7482   -3.9543   H         1 RES1   0.0000
   199 H114      4.3697    1.2194   -4.3548   H         1 RES1   0.0000
   200 H115      3.3800    1.7438   -1.5365   H         1 RES1   0.0000
   201 H116      6.1997    1.1630   -2.5405   H         1 RES1   0.0000
   202 H117      5.2186    0.0152   -1.6048   H         1 RES1   0.0000
   203 H118      5.7349    1.5398   -0.8961   H         1 RES1   0.0000
   204 H119      5.2192    3.1941   -3.5200   H         1 RES1   0.0000
   205 H120      4.9922    3.7122   -1.8661   H         1 RES1   0.0000
   206 H121      3.6404    3.7794   -3.0009   H         1 RES1   0.0000
   207 H122      2.1128   -4.8802    0.7894   H         1 RES1   0.0000
   208 H123      1.2711   -7.1929    1.0441   H         1 RES1   0.0000
   209 H124     -0.0503   -8.2274   -0.7852   H         1 RES1   0.0000
   210 H125     -0.4495   -6.9807   -2.8512   H         1 RES1   0.0000
   211 H126      0.5010   -4.7204   -3.1671   H         1 RES1   0.0000
   212 C73      -8.7689   -3.6092   -4.2378   C.3       1 RES1   0.0000
   213 C74      -7.7411   -2.5994   -3.7466   C.3       1 RES1   0.0000
   214 C75      -6.3178   -3.1547   -3.7644   C.3       1 RES1   0.0000
   215 C76      -5.8313   -3.5098   -5.1665   C.3       1 RES1   0.0000
   216 C77      -4.3150   -3.6428   -5.3268   C.3       1 RES1   0.0000
   217 C78      -3.6368   -4.7312   -4.4950   C.3       1 RES1   0.0000
   218 C79      -3.3210   -4.3797   -3.0335   C.3       1 RES1   0.0000
   219 C80      -2.1011   -3.4575   -2.8313   C.3       1 RES1   0.0000
   220 P4       -2.2819   -1.6646   -2.3951   P.3       1 RES1   0.0000
   221 O7       -0.9591   -1.1104   -1.9536   O.2       1 RES1   0.0000
   222 C81      -3.5306   -1.7165   -1.0435   C.3       1 RES1   0.0000
   223 C82      -3.5814   -0.5415   -0.0916   C.2       1 RES1   0.0000
   224 O8       -2.5323    0.0658    0.1708   O.2       1 RES1   0.0000
   225 N4       -4.7370   -0.2899    0.5437   N.am      1 RES1   0.0000
   226 C83      -6.0475   -0.8097    0.1547   C.3       1 RES1   0.0000
   227 C84      -6.5847   -2.1013    0.8198   C.3       1 RES1   0.0000
   228 C85      -5.8471   -3.3766    0.4226   C.3       1 RES1   0.0000
   229 C86      -6.6748   -2.0339    2.3433   C.3       1 RES1   0.0000
   230 C87      -4.7260    0.5133    1.7687   C.3       1 RES1   0.0000
   231 C88      -4.9986    2.0263    1.6811   C.3       1 RES1   0.0000
   232 C89      -6.2007    2.3977    0.8168   C.3       1 RES1   0.0000
   233 C90      -3.7466    2.8026    1.2811   C.3       1 RES1   0.0000
   234 C91      -2.8501   -0.8500   -3.9109   C.ar      1 RES1   0.0000
   235 C92      -1.9083   -0.9185   -4.9364   C.ar      1 RES1   0.0000
   236 C93      -2.2410   -0.5170   -6.2168   C.ar      1 RES1   0.0000
   237 C94      -3.5163   -0.0376   -6.4775   C.ar      1 RES1   0.0000
   238 C95      -4.4428    0.0586   -5.4490   C.ar      1 RES1   0.0000
   239 C96      -4.1196   -0.3473   -4.1610   C.ar      1 RES1   0.0000
   240 H127     -9.7755   -3.2164   -4.1227   H         1 RES1   0.0000
   241 H128     -8.7005   -4.5336   -3.6686   H         1 RES1   0.0000
   242 H129     -8.6169   -3.8384   -5.2882   H         1 RES1   0.0000
   243 H130     -7.9966   -2.3070   -2.7239   H         1 RES1   0.0000
   244 H131     -7.7883   -1.7033   -4.3677   H         1 RES1   0.0000
   245 H132     -6.2873   -4.0399   -3.1292   H         1 RES1   0.0000
   246 H133     -5.6489   -2.4019   -3.3429   H         1 RES1   0.0000
   247 H134     -6.1606   -2.7270   -5.8527   H         1 RES1   0.0000
   248 H135     -6.3002   -4.4386   -5.4838   H         1 RES1   0.0000
   249 H136     -3.8385   -2.6906   -5.1177   H         1 RES1   0.0000
   250 H137     -4.1297   -3.8617   -6.3795   H         1 RES1   0.0000
   251 H138     -2.6943   -5.0064   -4.9749   H         1 RES1   0.0000
   252 H139     -4.2690   -5.6193   -4.5131   H         1 RES1   0.0000
   253 H140     -3.0838   -5.3198   -2.5321   H         1 RES1   0.0000
   254 H141     -4.2015   -3.9774   -2.5422   H         1 RES1   0.0000
   255 H142     -1.4844   -3.4921   -3.7351   H         1 RES1   0.0000
   256 H143     -1.4928   -3.8328   -1.9978   H         1 RES1   0.0000
   257 H144     -3.1366   -2.5368   -0.4280   H         1 RES1   0.0000
   258 H145     -4.4921   -2.0149   -1.4448   H         1 RES1   0.0000
   259 H146     -6.0760   -0.9443   -0.9284   H         1 RES1   0.0000
   260 H147     -6.7624   -0.0225    0.3897   H         1 RES1   0.0000
   261 H148     -7.6083   -2.1863    0.4385   H         1 RES1   0.0000
   262 H149     -4.8160   -3.3577    0.7628   H         1 RES1   0.0000
   263 H150     -5.8771   -3.5368   -0.6514   H         1 RES1   0.0000
   264 H151     -6.3291   -4.2339    0.8864   H         1 RES1   0.0000
   265 H152     -5.6878   -2.0082    2.7991   H         1 RES1   0.0000
   266 H153     -7.1787   -2.9245    2.7112   H         1 RES1   0.0000
   267 H154     -7.2541   -1.1758    2.6752   H         1 RES1   0.0000
   268 H155     -3.7398    0.3645    2.2180   H         1 RES1   0.0000
   269 H156     -5.4834    0.0699    2.4093   H         1 RES1   0.0000
   270 H157     -5.2475    2.3344    2.7008   H         1 RES1   0.0000
   271 H158     -6.0932    2.0468   -0.2045   H         1 RES1   0.0000
   272 H159     -6.2942    3.4806    0.7922   H         1 RES1   0.0000
   273 H160     -7.1230    2.0042    1.2388   H         1 RES1   0.0000
   274 H161     -3.2161    2.3314    0.4598   H         1 RES1   0.0000
   275 H162     -3.0663    2.8844    2.1260   H         1 RES1   0.0000
   276 H163     -4.0147    3.8130    0.9924   H         1 RES1   0.0000
   277 H164     -0.9227   -1.3128   -4.7165   H         1 RES1   0.0000
   278 H165     -1.5184   -0.6066   -7.0121   H         1 RES1   0.0000
   279 H166     -3.7939    0.2602   -7.4781   H         1 RES1   0.0000
   280 H167     -5.4292    0.4355   -5.6640   H         1 RES1   0.0000
   281 H168     -4.8434   -0.2716   -3.3580   H         1 RES1   0.0000
   282 O9       -0.8124    1.3689    1.8292   O.3       1 RES1   0.0000
   283 H169     -0.1809    1.9071    2.3256   H         1 RES1   0.0000
   284 H170     -1.6349    1.3162    2.3340   H         1 RES1   0.0000
@<TRIPOS>BOND
     1     1    11    1
     2     1    14    1
     3     1    81    1
     4     1    84    1
     5     1   151    1
     6     1   154    1
     7     1   221    1
     8     1   224    1
     9     1   282    1
    10     2     3    1
    11     2    30    1
    12     2    31    1
    13     2    32    1
    14     3     4    1
    15     3    33    1
    16     3    34    1
    17     4     5    1
    18     4    35    1
    19     4    36    1
    20     5     6    1
    21     5    37    1
    22     5    38    1
    23     6     7    1
    24     6    39    1
    25     6    40    1
    26     7     8    1
    27     7    41    1
    28     7    42    1
    29     8     9    1
    30     8    43    1
    31     8    44    1
    32     9    10    1
    33     9    45    1
    34     9    46    1
    35    10    11    2
    36    10    12    1
    37    10    24    1
    38    12    13    1
    39    12    47    1
    40    12    48    1
    41    13    14    2
    42    13    15    1
    43    15    16    1
    44    15    20    1
    45    16    17    1
    46    16    49    1
    47    16    50    1
    48    17    18    1
    49    17    19    1
    50    17    51    1
    51    18    52    1
    52    18    53    1
    53    18    54    1
    54    19    55    1
    55    19    56    1
    56    19    57    1
    57    20    21    1
    58    20    58    1
    59    20    59    1
    60    21    22    1
    61    21    23    1
    62    21    60    1
    63    22    61    1
    64    22    62    1
    65    22    63    1
    66    23    64    1
    67    23    65    1
    68    23    66    1
    69    24    25    1
    70    24    29    2
    71    25    26    2
    72    25    67    1
    73    26    27    1
    74    26    68    1
    75    27    28    2
    76    27    69    1
    77    28    29    1
    78    28    70    1
    79    29    71    1
    80    72    73    1
    81    72   100    1
    82    72   101    1
    83    72   102    1
    84    73    74    1
    85    73   103    1
    86    73   104    1
    87    74    75    1
    88    74   105    1
    89    74   106    1
    90    75    76    1
    91    75   107    1
    92    75   108    1
    93    76    77    1
    94    76   109    1
    95    76   110    1
    96    77    78    1
    97    77   111    1
    98    77   112    1
    99    78    79    1
   100    78   113    1
   101    78   114    1
   102    79    80    1
   103    79   115    1
   104    79   116    1
   105    80    81    2
   106    80    82    1
   107    80    94    1
   108    82    83    1
   109    82   117    1
   110    82   118    1
   111    83    84    2
   112    83    85    1
   113    85    86    1
   114    85    90    1
   115    86    87    1
   116    86   119    1
   117    86   120    1
   118    87    88    1
   119    87    89    1
   120    87   121    1
   121    88   122    1
   122    88   123    1
   123    88   124    1
   124    89   125    1
   125    89   126    1
   126    89   127    1
   127    90    91    1
   128    90   128    1
   129    90   129    1
   130    91    92    1
   131    91    93    1
   132    91   130    1
   133    92   131    1
   134    92   132    1
   135    92   133    1
   136    93   134    1
   137    93   135    1
   138    93   136    1
   139    94    95    1
   140    94    99    2
   141    95    96    2
   142    95   137    1
   143    96    97    1
   144    96   138    1
   145    97    98    2
   146    97   139    1
   147    98    99    1
   148    98   140    1
   149    99   141    1
   150   142   143    1
   151   142   170    1
   152   142   171    1
   153   142   172    1
   154   143   144    1
   155   143   173    1
   156   143   174    1
   157   144   145    1
   158   144   175    1
   159   144   176    1
   160   145   146    1
   161   145   177    1
   162   145   178    1
   163   146   147    1
   164   146   179    1
   165   146   180    1
   166   147   148    1
   167   147   181    1
   168   147   182    1
   169   148   149    1
   170   148   183    1
   171   148   184    1
   172   149   150    1
   173   149   185    1
   174   149   186    1
   175   150   151    2
   176   150   152    1
   177   150   164    1
   178   152   153    1
   179   152   187    1
   180   152   188    1
   181   153   154    2
   182   153   155    1
   183   155   156    1
   184   155   160    1
   185   156   157    1
   186   156   189    1
   187   156   190    1
   188   157   158    1
   189   157   159    1
   190   157   191    1
   191   158   192    1
   192   158   193    1
   193   158   194    1
   194   159   195    1
   195   159   196    1
   196   159   197    1
   197   160   161    1
   198   160   198    1
   199   160   199    1
   200   161   162    1
   201   161   163    1
   202   161   200    1
   203   162   201    1
   204   162   202    1
   205   162   203    1
   206   163   204    1
   207   163   205    1
   208   163   206    1
   209   164   165    1
   210   164   169    2
   211   165   166    2
   212   165   207    1
   213   166   167    1
   214   166   208    1
   215   167   168    2
   216   167   209    1
   217   168   169    1
   218   168   210    1
   219   169   211    1
   220   212   213    1
   221   212   240    1
   222   212   241    1
   223   212   242    1
   224   213   214    1
   225   213   243    1
   226   213   244    1
   227   214   215    1
   228   214   245    1
   229   214   246    1
   230   215   216    1
   231   215   247    1
   232   215   248    1
   233   216   217    1
   234   216   249    1
   235   216   250    1
   236   217   218    1
   237   217   251    1
   238   217   252    1
   239   218   219    1
   240   218   253    1
   241   218   254    1
   242   219   220    1
   243   219   255    1
   244   219   256    1
   245   220   221    2
   246   220   222    1
   247   220   234    1
   248   222   223    1
   249   222   257    1
   250   222   258    1
   251   223   224    2
   252   223   225    1
   253   225   226    1
   254   225   230    1
   255   226   227    1
   256   226   259    1
   257   226   260    1
   258   227   228    1
   259   227   229    1
   260   227   261    1
   261   228   262    1
   262   228   263    1
   263   228   264    1
   264   229   265    1
   265   229   266    1
   266   229   267    1
   267   230   231    1
   268   230   268    1
   269   230   269    1
   270   231   232    1
   271   231   233    1
   272   231   270    1
   273   232   271    1
   274   232   272    1
   275   232   273    1
   276   233   274    1
   277   233   275    1
   278   233   276    1
   279   234   235    1
   280   234   239    2
   281   235   236    2
   282   235   277    1
   283   236   237    1
   284   236   278    1
   285   237   238    2
   286   237   279    1
   287   238   239    1
   288   238   280    1
   289   239   281    1
   290   282   283    1
   291   282   284    1
@<TRIPOS>SUBSTRUCTURE
     1 RES1      284 GROUP             0 ****  ****    0  
