@<TRIPOS>MOLECULE
cn9_YICLED_0_nunpairedes_0_charge_3 Charge: 3 Unpaired_Electrons: 2 XTB_Unpaired_Electrons: 0 XTB_Charge: 3
   328   333     1     0     0
SMALL
NoCharges
****
Generated from Architector

@<TRIPOS>ATOM
     1 Pr1      -0.0466    0.2721    0.0723   Pr        1 RES1   0.0000
     2 C1       -5.1471   -6.2535   -1.0017   C.3       1 RES1   0.0000
     3 C2       -3.9436   -5.4364   -0.5482   C.3       1 RES1   0.0000
     4 C3       -4.3365   -4.2376    0.3267   C.3       1 RES1   0.0000
     5 C4       -4.6057   -4.6644    1.7718   C.3       1 RES1   0.0000
     6 C5       -5.2095   -3.5566    2.6378   C.3       1 RES1   0.0000
     7 C6       -4.2107   -2.6773    3.3949   C.3       1 RES1   0.0000
     8 N1       -3.7795   -1.5248    2.6187   N.am      1 RES1   0.0000
     9 C7       -4.8303   -0.5267    2.3416   C.3       1 RES1   0.0000
    10 C8       -5.9645   -0.4087    3.3765   C.3       1 RES1   0.0000
    11 C9       -6.8817    0.8009    3.0955   C.3       1 RES1   0.0000
    12 C10      -6.1764    2.0761    3.5374   C.3       1 RES1   0.0000
    13 C11      -8.2443    0.7139    3.8128   C.3       1 RES1   0.0000
    14 C12      -9.4096    0.2525    2.9394   C.3       1 RES1   0.0000
    15 C13      -9.7364    1.1744    1.7930   C.2       1 RES1   0.0000
    16 C14     -10.6522    0.8898    0.8725   C.2       1 RES1   0.0000
    17 C15     -11.0294    1.8640   -0.2096   C.3       1 RES1   0.0000
    18 C16     -11.3797   -0.4231    0.8705   C.3       1 RES1   0.0000
    19 C17      -2.5790   -1.3905    2.0555   C.2       1 RES1   0.0000
    20 O1       -2.2699   -0.4438    1.3081   O.2       1 RES1   0.0000
    21 C18      -1.5474   -2.4949    2.2954   C.3       1 RES1   0.0000
    22 O2       -0.2537   -2.1682    1.8089   O.3       1 RES1   0.0000
    23 C19       0.7794   -2.0425    2.7744   C.3       1 RES1   0.0000
    24 C20       1.1102   -0.5617    2.9286   C.2       1 RES1   0.0000
    25 O3        0.3310    0.2327    2.3662   O.2       1 RES1   0.0000
    26 N2        2.0751   -0.1287    3.7333   N.am      1 RES1   0.0000
    27 C21       1.9532    1.2889    4.1064   C.3       1 RES1   0.0000
    28 C22       2.3485    2.1435    2.9087   C.3       1 RES1   0.0000
    29 C23       2.3095    3.6633    3.0441   C.3       1 RES1   0.0000
    30 C24       0.9581    4.2730    2.6732   C.3       1 RES1   0.0000
    31 C25       1.0850    5.5649    1.8549   C.3       1 RES1   0.0000
    32 C26      -0.0574    6.5349    2.1397   C.3       1 RES1   0.0000
    33 C27       3.2521   -0.8392    4.2390   C.3       1 RES1   0.0000
    34 C28       3.7908   -2.0089    3.4054   C.3       1 RES1   0.0000
    35 C29       5.2973   -2.3248    3.6132   C.3       1 RES1   0.0000
    36 C30       5.7049   -2.1907    5.0794   C.3       1 RES1   0.0000
    37 C31       6.2623   -1.5258    2.7065   C.3       1 RES1   0.0000
    38 C32       6.8934   -2.3356    1.5504   C.3       1 RES1   0.0000
    39 C33       6.3737   -1.9952    0.1877   C.2       1 RES1   0.0000
    40 C34       6.0709   -2.8367   -0.7976   C.2       1 RES1   0.0000
    41 C35       5.6314   -2.3246   -2.1419   C.3       1 RES1   0.0000
    42 C36       6.1918   -4.3279   -0.7345   C.3       1 RES1   0.0000
    43 H1       -4.8238   -7.1281   -1.5585   H         1 RES1   0.0000
    44 H2       -5.7865   -5.6673   -1.6559   H         1 RES1   0.0000
    45 H3       -5.7367   -6.5878   -0.1532   H         1 RES1   0.0000
    46 H4       -3.4175   -5.0874   -1.4366   H         1 RES1   0.0000
    47 H5       -3.2519   -6.0783    0.0011   H         1 RES1   0.0000
    48 H6       -5.2386   -3.7792   -0.0883   H         1 RES1   0.0000
    49 H7       -3.5463   -3.4765    0.2999   H         1 RES1   0.0000
    50 H8       -3.6923   -5.0482    2.2285   H         1 RES1   0.0000
    51 H9       -5.3125   -5.4938    1.7467   H         1 RES1   0.0000
    52 H10      -5.8715   -4.0085    3.3740   H         1 RES1   0.0000
    53 H11      -5.8093   -2.9198    1.9981   H         1 RES1   0.0000
    54 H12      -3.3662   -3.2817    3.7007   H         1 RES1   0.0000
    55 H13      -4.6752   -2.2971    4.3059   H         1 RES1   0.0000
    56 H14      -5.2835   -0.7575    1.3706   H         1 RES1   0.0000
    57 H15      -4.3107    0.4303    2.2610   H         1 RES1   0.0000
    58 H16      -5.5387   -0.2691    4.3681   H         1 RES1   0.0000
    59 H17      -6.5661   -1.3171    3.3831   H         1 RES1   0.0000
    60 H18      -7.0606    0.8476    2.0193   H         1 RES1   0.0000
    61 H19      -6.3019    2.2313    4.6034   H         1 RES1   0.0000
    62 H20      -6.5784    2.9452    3.0296   H         1 RES1   0.0000
    63 H21      -5.1173    2.0045    3.3336   H         1 RES1   0.0000
    64 H22      -8.5065    1.7048    4.1818   H         1 RES1   0.0000
    65 H23      -8.1641    0.0612    4.6848   H         1 RES1   0.0000
    66 H24     -10.3028    0.1779    3.5693   H         1 RES1   0.0000
    67 H25      -9.2219   -0.7530    2.5677   H         1 RES1   0.0000
    68 H26      -9.2348    2.1352    1.7659   H         1 RES1   0.0000
    69 H27     -10.1541    2.3233   -0.6649   H         1 RES1   0.0000
    70 H28     -11.6089    1.3765   -0.9894   H         1 RES1   0.0000
    71 H29     -11.6413    2.6606    0.2135   H         1 RES1   0.0000
    72 H30     -11.6934   -0.7048    1.8736   H         1 RES1   0.0000
    73 H31     -10.7353   -1.2090    0.4765   H         1 RES1   0.0000
    74 H32     -12.2593   -0.3838    0.2373   H         1 RES1   0.0000
    75 H33      -1.8778   -3.3795    1.7361   H         1 RES1   0.0000
    76 H34      -1.5077   -2.7446    3.3558   H         1 RES1   0.0000
    77 H35       1.6179   -2.6425    2.4217   H         1 RES1   0.0000
    78 H36       0.4902   -2.4195    3.7650   H         1 RES1   0.0000
    79 H37       2.6009    1.4721    4.9605   H         1 RES1   0.0000
    80 H38       0.9205    1.4838    4.4080   H         1 RES1   0.0000
    81 H39       1.6676    1.8939    2.0941   H         1 RES1   0.0000
    82 H40       3.3416    1.8142    2.6187   H         1 RES1   0.0000
    83 H41       2.5930    3.9808    4.0435   H         1 RES1   0.0000
    84 H42       3.0379    4.0728    2.3483   H         1 RES1   0.0000
    85 H43       0.4120    4.4846    3.5915   H         1 RES1   0.0000
    86 H44       0.3970    3.5482    2.0702   H         1 RES1   0.0000
    87 H45       1.0949    5.3126    0.7906   H         1 RES1   0.0000
    88 H46       2.0272    6.0657    2.0851   H         1 RES1   0.0000
    89 H47      -1.0233    6.0368    2.1201   H         1 RES1   0.0000
    90 H48      -0.0630    7.3254    1.3962   H         1 RES1   0.0000
    91 H49       0.0662    6.9921    3.1185   H         1 RES1   0.0000
    92 H50       3.0419   -1.1751    5.2555   H         1 RES1   0.0000
    93 H51       4.0434   -0.0934    4.3126   H         1 RES1   0.0000
    94 H52       3.6374   -1.7969    2.3476   H         1 RES1   0.0000
    95 H53       3.2376   -2.9095    3.6814   H         1 RES1   0.0000
    96 H54       5.4032   -3.3817    3.3501   H         1 RES1   0.0000
    97 H55       5.7835   -1.1501    5.3826   H         1 RES1   0.0000
    98 H56       6.6759   -2.6539    5.2276   H         1 RES1   0.0000
    99 H57       4.9849   -2.6887    5.7222   H         1 RES1   0.0000
   100 H58       7.0688   -1.1460    3.3314   H         1 RES1   0.0000
   101 H59       5.7640   -0.6422    2.3040   H         1 RES1   0.0000
   102 H60       6.7843   -3.4004    1.7440   H         1 RES1   0.0000
   103 H61       7.9700   -2.1488    1.5371   H         1 RES1   0.0000
   104 H62       6.3483   -0.9306   -0.0208   H         1 RES1   0.0000
   105 H63       5.3678   -1.2695   -2.1065   H         1 RES1   0.0000
   106 H64       4.7817   -2.8904   -2.5242   H         1 RES1   0.0000
   107 H65       6.4342   -2.4373   -2.8683   H         1 RES1   0.0000
   108 H66       6.4232   -4.6949    0.2582   H         1 RES1   0.0000
   109 H67       6.9882   -4.6536   -1.4028   H         1 RES1   0.0000
   110 H68       5.2755   -4.8103   -1.0718   H         1 RES1   0.0000
   111 C37      -3.1909    0.4226    6.1876   C.3       1 RES1   0.0000
   112 C38      -3.1826    1.8398    5.6241   C.3       1 RES1   0.0000
   113 C39      -2.3640    1.9462    4.3379   C.3       1 RES1   0.0000
   114 C40      -2.0908    3.3914    3.9107   C.3       1 RES1   0.0000
   115 C41      -3.1334    4.0855    3.0245   C.3       1 RES1   0.0000
   116 C42      -2.7962    4.0858    1.5267   C.3       1 RES1   0.0000
   117 N3       -3.2957    2.9594    0.7458   N.am      1 RES1   0.0000
   118 C43      -4.7436    2.8461    0.6220   C.3       1 RES1   0.0000
   119 C44      -5.4423    3.1791   -0.7092   C.3       1 RES1   0.0000
   120 C45      -6.7135    2.3150   -0.9103   C.3       1 RES1   0.0000
   121 C46      -7.4644    2.8554   -2.1260   C.3       1 RES1   0.0000
   122 C47      -6.4778    0.7962   -1.0751   C.3       1 RES1   0.0000
   123 C48      -7.7169   -0.0385   -0.6956   C.3       1 RES1   0.0000
   124 C49      -7.6987   -1.4658   -1.1669   C.2       1 RES1   0.0000
   125 C50      -7.9654   -2.5710   -0.4759   C.2       1 RES1   0.0000
   126 C51      -8.2102   -2.6270    1.0009   C.3       1 RES1   0.0000
   127 C52      -8.1323   -3.9083   -1.1336   C.3       1 RES1   0.0000
   128 C53      -2.4355    2.1340    0.1758   C.2       1 RES1   0.0000
   129 O4       -1.2006    2.1745    0.3583   O.2       1 RES1   0.0000
   130 C54      -3.0189    1.1238   -0.8085   C.3       1 RES1   0.0000
   131 O5       -1.9915    0.3177   -1.3529   O.3       1 RES1   0.0000
   132 C55      -2.0276    0.1791   -2.7701   C.3       1 RES1   0.0000
   133 C56      -0.5950    0.3740   -3.2718   C.2       1 RES1   0.0000
   134 O6        0.2799    0.5086   -2.3924   O.2       1 RES1   0.0000
   135 N4       -0.3148    0.3574   -4.5695   N.am      1 RES1   0.0000
   136 C57       1.1025    0.3414   -4.9343   C.3       1 RES1   0.0000
   137 C58       1.7298   -1.0558   -4.8928   C.3       1 RES1   0.0000
   138 C59       1.0948   -2.1124   -5.8050   C.3       1 RES1   0.0000
   139 C60       1.1437   -1.8046   -7.3062   C.3       1 RES1   0.0000
   140 C61       0.1691   -2.6832   -8.0999   C.3       1 RES1   0.0000
   141 C62       0.0039   -2.2080   -9.5393   C.3       1 RES1   0.0000
   142 C63      -1.1673    0.2923   -5.7643   C.3       1 RES1   0.0000
   143 C64      -2.6836    0.4792   -5.7817   C.3       1 RES1   0.0000
   144 C65      -3.2619    1.9094   -5.9682   C.3       1 RES1   0.0000
   145 C66      -4.5938    2.0135   -5.2219   C.3       1 RES1   0.0000
   146 C67      -2.3295    3.0984   -5.6823   C.3       1 RES1   0.0000
   147 C68      -1.9426    3.3898   -4.2322   C.3       1 RES1   0.0000
   148 C69      -1.1004    4.6368   -4.1511   C.2       1 RES1   0.0000
   149 C70      -0.6094    5.1795   -3.0438   C.2       1 RES1   0.0000
   150 C71       0.2077    6.4385   -3.1065   C.3       1 RES1   0.0000
   151 C72      -0.8398    4.5917   -1.6832   C.3       1 RES1   0.0000
   152 H69      -3.9463    0.3243    6.9617   H         1 RES1   0.0000
   153 H70      -3.3972   -0.3018    5.4024   H         1 RES1   0.0000
   154 H71      -2.2303    0.1706    6.6308   H         1 RES1   0.0000
   155 H72      -4.2027    2.1706    5.4384   H         1 RES1   0.0000
   156 H73      -2.7580    2.5100    6.3724   H         1 RES1   0.0000
   157 H74      -1.3982    1.4606    4.5105   H         1 RES1   0.0000
   158 H75      -2.8426    1.3940    3.5242   H         1 RES1   0.0000
   159 H76      -1.9474    3.9914    4.8122   H         1 RES1   0.0000
   160 H77      -1.1529    3.3844    3.3723   H         1 RES1   0.0000
   161 H78      -4.1248    3.6842    3.2131   H         1 RES1   0.0000
   162 H79      -3.1790    5.1307    3.3245   H         1 RES1   0.0000
   163 H80      -3.2175    4.9763    1.0555   H         1 RES1   0.0000
   164 H81      -1.7143    4.0944    1.3924   H         1 RES1   0.0000
   165 H82      -5.0544    1.8485    0.9256   H         1 RES1   0.0000
   166 H83      -5.1335    3.5399    1.3579   H         1 RES1   0.0000
   167 H84      -5.7635    4.2219   -0.6568   H         1 RES1   0.0000
   168 H85      -4.7868    3.0994   -1.5780   H         1 RES1   0.0000
   169 H86      -7.3415    2.4488   -0.0231   H         1 RES1   0.0000
   170 H87      -6.8385    2.8148   -3.0146   H         1 RES1   0.0000
   171 H88      -8.3616    2.2768   -2.3187   H         1 RES1   0.0000
   172 H89      -7.7586    3.8881   -1.9684   H         1 RES1   0.0000
   173 H90      -6.2125    0.5844   -2.1115   H         1 RES1   0.0000
   174 H91      -5.6496    0.4528   -0.4516   H         1 RES1   0.0000
   175 H92      -7.8672    0.0032    0.3802   H         1 RES1   0.0000
   176 H93      -8.5985    0.4238   -1.1445   H         1 RES1   0.0000
   177 H94      -7.5663   -1.5625   -2.2361   H         1 RES1   0.0000
   178 H95      -9.2802   -2.6189    1.2036   H         1 RES1   0.0000
   179 H96      -7.8223   -3.5573    1.4080   H         1 RES1   0.0000
   180 H97      -7.7490   -1.7925    1.5187   H         1 RES1   0.0000
   181 H98      -7.8356   -3.9044   -2.1767   H         1 RES1   0.0000
   182 H99      -7.5670   -4.6744   -0.6081   H         1 RES1   0.0000
   183 H100     -9.1820   -4.1941   -1.0869   H         1 RES1   0.0000
   184 H101     -3.7342    0.4737   -0.2968   H         1 RES1   0.0000
   185 H102     -3.5460    1.6780   -1.5882   H         1 RES1   0.0000
   186 H103     -2.3705   -0.8350   -3.0069   H         1 RES1   0.0000
   187 H104     -2.7065    0.9077   -3.2157   H         1 RES1   0.0000
   188 H105      1.2087    0.7458   -5.9374   H         1 RES1   0.0000
   189 H106      1.6280    0.9894   -4.2315   H         1 RES1   0.0000
   190 H107      2.7791   -0.9424   -5.1690   H         1 RES1   0.0000
   191 H108      1.6842   -1.4250   -3.8661   H         1 RES1   0.0000
   192 H109      1.6186   -3.0583   -5.6414   H         1 RES1   0.0000
   193 H110      0.0570   -2.2799   -5.5089   H         1 RES1   0.0000
   194 H111      0.9079   -0.7580   -7.5056   H         1 RES1   0.0000
   195 H112      2.1555   -1.9764   -7.6725   H         1 RES1   0.0000
   196 H113      0.5330   -3.7115   -8.1030   H         1 RES1   0.0000
   197 H114     -0.8100   -2.6877   -7.6078   H         1 RES1   0.0000
   198 H115      0.9612   -2.1987  -10.0532   H         1 RES1   0.0000
   199 H116     -0.6636   -2.8734  -10.0810   H         1 RES1   0.0000
   200 H117     -0.4107   -1.2021   -9.5695   H         1 RES1   0.0000
   201 H118     -0.7523    1.0205   -6.4616   H         1 RES1   0.0000
   202 H119     -0.9644   -0.6853   -6.1969   H         1 RES1   0.0000
   203 H120     -3.0068   -0.0736   -6.6678   H         1 RES1   0.0000
   204 H121     -3.1503   -0.0265   -4.9440   H         1 RES1   0.0000
   205 H122     -3.4872    2.0088   -7.0366   H         1 RES1   0.0000
   206 H123     -4.4609    1.9291   -4.1424   H         1 RES1   0.0000
   207 H124     -5.0766    2.9629   -5.4374   H         1 RES1   0.0000
   208 H125     -5.2571    1.2138   -5.5430   H         1 RES1   0.0000
   209 H126     -1.4162    2.9918   -6.2713   H         1 RES1   0.0000
   210 H127     -2.8367    3.9875   -6.0648   H         1 RES1   0.0000
   211 H128     -2.8542    3.5248   -3.6393   H         1 RES1   0.0000
   212 H129     -1.3748    2.5625   -3.7980   H         1 RES1   0.0000
   213 H130     -0.8958    5.1147   -5.0980   H         1 RES1   0.0000
   214 H131     -0.3936    7.2606   -3.4894   H         1 RES1   0.0000
   215 H132      0.5748    6.7159   -2.1241   H         1 RES1   0.0000
   216 H133      1.0564    6.3147   -3.7747   H         1 RES1   0.0000
   217 H134     -1.6987    3.9257   -1.6880   H         1 RES1   0.0000
   218 H135      0.0314    4.0175   -1.3552   H         1 RES1   0.0000
   219 H136     -1.0229    5.3796   -0.9568   H         1 RES1   0.0000
   220 C73       4.2878    4.4870    6.7320   C.3       1 RES1   0.0000
   221 C74       4.7514    3.3499    5.8237   C.3       1 RES1   0.0000
   222 C75       5.5706    3.8137    4.6147   C.3       1 RES1   0.0000
   223 C76       5.7800    2.6740    3.5957   C.3       1 RES1   0.0000
   224 C77       5.6412    3.1748    2.1558   C.3       1 RES1   0.0000
   225 C78       5.4382    2.0907    1.0699   C.3       1 RES1   0.0000
   226 N5        4.1602    2.2631    0.3714   N.am      1 RES1   0.0000
   227 C79       3.9370    3.5909   -0.1922   C.3       1 RES1   0.0000
   228 C80       4.1869    3.6117   -1.6962   C.3       1 RES1   0.0000
   229 C81       3.8241    4.9705   -2.3146   C.3       1 RES1   0.0000
   230 C82       3.7504    4.7596   -3.8237   C.3       1 RES1   0.0000
   231 C83       4.8317    6.0827   -1.9810   C.3       1 RES1   0.0000
   232 C84       4.5819    6.8913   -0.7015   C.3       1 RES1   0.0000
   233 C85       3.3254    7.7212   -0.7181   C.2       1 RES1   0.0000
   234 C86       2.9074    8.4999    0.2728   C.2       1 RES1   0.0000
   235 C87       1.6910    9.3681    0.1346   C.3       1 RES1   0.0000
   236 C88       3.6200    8.6361    1.5867   C.3       1 RES1   0.0000
   237 C89       3.2165    1.3488    0.1575   C.2       1 RES1   0.0000
   238 O7        2.0562    1.6122   -0.2137   O.2       1 RES1   0.0000
   239 C90       3.5774   -0.1256    0.2985   C.3       1 RES1   0.0000
   240 O8        2.3746   -0.8882    0.3346   O.3       1 RES1   0.0000
   241 C91       2.5304   -2.1902   -0.2177   C.3       1 RES1   0.0000
   242 C92       1.1723   -2.6405   -0.7815   C.2       1 RES1   0.0000
   243 O9        0.2892   -1.7760   -0.9021   O.2       1 RES1   0.0000
   244 N6        1.0605   -3.9016   -1.1856   N.am      1 RES1   0.0000
   245 C93       0.1997   -4.3164   -2.2935   C.3       1 RES1   0.0000
   246 C94      -1.1056   -3.5719   -2.5186   C.3       1 RES1   0.0000
   247 C95      -1.7767   -4.1686   -3.7626   C.3       1 RES1   0.0000
   248 C96      -2.8470   -3.2664   -4.3736   C.3       1 RES1   0.0000
   249 C97      -4.0704   -3.1052   -3.4739   C.3       1 RES1   0.0000
   250 C98      -5.0517   -2.0634   -3.9958   C.3       1 RES1   0.0000
   251 C99       2.0076   -4.9187   -0.7395   C.3       1 RES1   0.0000
   252 C100      1.8552   -5.2338    0.7608   C.3       1 RES1   0.0000
   253 C101      1.0376   -6.4811    1.1521   C.3       1 RES1   0.0000
   254 C102      1.5458   -7.7539    0.4821   C.3       1 RES1   0.0000
   255 C103     -0.4777   -6.3306    0.9292   C.3       1 RES1   0.0000
   256 C104     -1.2612   -6.8787    2.1349   C.3       1 RES1   0.0000
   257 C105     -1.2233   -5.9136    3.2781   C.2       1 RES1   0.0000
   258 C106     -1.0177   -6.1213    4.5750   C.2       1 RES1   0.0000
   259 C107     -1.0804   -4.9731    5.5418   C.3       1 RES1   0.0000
   260 C108     -0.7374   -7.4435    5.2041   C.3       1 RES1   0.0000
   261 H137      3.4963    4.1436    7.3964   H         1 RES1   0.0000
   262 H138      3.8997    5.3183    6.1480   H         1 RES1   0.0000
   263 H139      5.1018    4.8584    7.3455   H         1 RES1   0.0000
   264 H140      3.8659    2.8290    5.4519   H         1 RES1   0.0000
   265 H141      5.3383    2.6361    6.4025   H         1 RES1   0.0000
   266 H142      6.5269    4.2022    4.9585   H         1 RES1   0.0000
   267 H143      5.0362    4.6413    4.1417   H         1 RES1   0.0000
   268 H144      5.0167    1.9208    3.7993   H         1 RES1   0.0000
   269 H145      6.7564    2.2106    3.7330   H         1 RES1   0.0000
   270 H146      6.5111    3.7819    1.9154   H         1 RES1   0.0000
   271 H147      4.7766    3.8295    2.1507   H         1 RES1   0.0000
   272 H148      5.4694    1.1034    1.5267   H         1 RES1   0.0000
   273 H149      6.2395    2.1488    0.3276   H         1 RES1   0.0000
   274 H150      4.6289    4.2792    0.2805   H         1 RES1   0.0000
   275 H151      2.9051    3.8850    0.0100   H         1 RES1   0.0000
   276 H152      3.5679    2.8377   -2.1596   H         1 RES1   0.0000
   277 H153      5.2361    3.3771   -1.9037   H         1 RES1   0.0000
   278 H154      2.8389    5.2648   -1.9417   H         1 RES1   0.0000
   279 H155      4.7225    4.4535   -4.1976   H         1 RES1   0.0000
   280 H156      3.4599    5.6677   -4.3365   H         1 RES1   0.0000
   281 H157      3.0263    3.9857   -4.0633   H         1 RES1   0.0000
   282 H158      4.8380    6.7899   -2.8095   H         1 RES1   0.0000
   283 H159      5.8339    5.6502   -1.9329   H         1 RES1   0.0000
   284 H160      5.4318    7.5694   -0.5722   H         1 RES1   0.0000
   285 H161      4.5713    6.2395    0.1742   H         1 RES1   0.0000
   286 H162      2.7699    7.7053   -1.6452   H         1 RES1   0.0000
   287 H163      1.1141    9.1040   -0.7484   H         1 RES1   0.0000
   288 H164      1.9961   10.4099    0.0455   H         1 RES1   0.0000
   289 H165      1.0540    9.3020    1.0149   H         1 RES1   0.0000
   290 H166      4.4708    7.9671    1.6664   H         1 RES1   0.0000
   291 H167      2.9412    8.4369    2.4151   H         1 RES1   0.0000
   292 H168      3.9796    9.6563    1.7076   H         1 RES1   0.0000
   293 H169      4.1821   -0.3607    1.1766   H         1 RES1   0.0000
   294 H170      4.1673   -0.3804   -0.5921   H         1 RES1   0.0000
   295 H171      2.9576   -2.8664    0.5288   H         1 RES1   0.0000
   296 H172      3.2186   -2.1610   -1.0785   H         1 RES1   0.0000
   297 H173      0.8104   -4.2360   -3.2022   H         1 RES1   0.0000
   298 H174     -0.0343   -5.3683   -2.1401   H         1 RES1   0.0000
   299 H175     -0.9184   -2.5102   -2.6705   H         1 RES1   0.0000
   300 H176     -1.7382   -3.6868   -1.6388   H         1 RES1   0.0000
   301 H177     -2.2148   -5.1352   -3.5107   H         1 RES1   0.0000
   302 H178     -1.0107   -4.3442   -4.5216   H         1 RES1   0.0000
   303 H179     -3.1716   -3.7024   -5.3203   H         1 RES1   0.0000
   304 H180     -2.3983   -2.2922   -4.5936   H         1 RES1   0.0000
   305 H181     -3.7556   -2.8295   -2.4642   H         1 RES1   0.0000
   306 H182     -4.5782   -4.0684   -3.4065   H         1 RES1   0.0000
   307 H183     -5.2861   -2.2258   -5.0443   H         1 RES1   0.0000
   308 H184     -5.9758   -2.1185   -3.4313   H         1 RES1   0.0000
   309 H185     -4.6593   -1.0546   -3.8836   H         1 RES1   0.0000
   310 H186      3.0289   -4.6015   -0.9605   H         1 RES1   0.0000
   311 H187      1.8458   -5.8190   -1.3266   H         1 RES1   0.0000
   312 H188      1.3796   -4.3802    1.2470   H         1 RES1   0.0000
   313 H189      2.8527   -5.3604    1.1853   H         1 RES1   0.0000
   314 H190      1.1882   -6.5815    2.2342   H         1 RES1   0.0000
   315 H191      1.3679   -7.7372   -0.5900   H         1 RES1   0.0000
   316 H192      1.0245   -8.6209    0.8794   H         1 RES1   0.0000
   317 H193      2.6109   -7.8876    0.6446   H         1 RES1   0.0000
   318 H194     -0.7743   -6.8704    0.0275   H         1 RES1   0.0000
   319 H195     -0.7425   -5.2788    0.7786   H         1 RES1   0.0000
   320 H196     -0.8594   -7.8465    2.4262   H         1 RES1   0.0000
   321 H197     -2.3074   -7.0406    1.8497   H         1 RES1   0.0000
   322 H198     -1.4238   -4.9016    2.9639   H         1 RES1   0.0000
   323 H199     -1.2951   -4.0333    5.0339   H         1 RES1   0.0000
   324 H200     -0.1398   -4.8668    6.0791   H         1 RES1   0.0000
   325 H201     -1.8625   -5.1440    6.2789   H         1 RES1   0.0000
   326 H202     -0.7071   -8.2488    4.4797   H         1 RES1   0.0000
   327 H203     -1.5053   -7.6719    5.9395   H         1 RES1   0.0000
   328 H204      0.2130   -7.4102    5.7324   H         1 RES1   0.0000
@<TRIPOS>BOND
     1     1    20    1
     2     1    22    1
     3     1    25    1
     4     1   129    1
     5     1   131    1
     6     1   134    1
     7     1   238    1
     8     1   240    1
     9     1   243    1
    10     2     3    1
    11     2    43    1
    12     2    44    1
    13     2    45    1
    14     3     4    1
    15     3    46    1
    16     3    47    1
    17     4     5    1
    18     4    48    1
    19     4    49    1
    20     5     6    1
    21     5    50    1
    22     5    51    1
    23     6     7    1
    24     6    52    1
    25     6    53    1
    26     7     8    1
    27     7    54    1
    28     7    55    1
    29     8     9    1
    30     8    19    1
    31     9    10    1
    32     9    56    1
    33     9    57    1
    34    10    11    1
    35    10    58    1
    36    10    59    1
    37    11    12    1
    38    11    13    1
    39    11    60    1
    40    12    61    1
    41    12    62    1
    42    12    63    1
    43    13    14    1
    44    13    64    1
    45    13    65    1
    46    14    15    1
    47    14    66    1
    48    14    67    1
    49    15    16    2
    50    15    68    1
    51    16    17    1
    52    16    18    1
    53    17    69    1
    54    17    70    1
    55    17    71    1
    56    18    72    1
    57    18    73    1
    58    18    74    1
    59    19    20    2
    60    19    21    1
    61    21    22    1
    62    21    75    1
    63    21    76    1
    64    22    23    1
    65    23    24    1
    66    23    77    1
    67    23    78    1
    68    24    25    2
    69    24    26    1
    70    26    27    1
    71    26    33    1
    72    27    28    1
    73    27    79    1
    74    27    80    1
    75    28    29    1
    76    28    81    1
    77    28    82    1
    78    29    30    1
    79    29    83    1
    80    29    84    1
    81    30    31    1
    82    30    85    1
    83    30    86    1
    84    31    32    1
    85    31    87    1
    86    31    88    1
    87    32    89    1
    88    32    90    1
    89    32    91    1
    90    33    34    1
    91    33    92    1
    92    33    93    1
    93    34    35    1
    94    34    94    1
    95    34    95    1
    96    35    36    1
    97    35    37    1
    98    35    96    1
    99    36    97    1
   100    36    98    1
   101    36    99    1
   102    37    38    1
   103    37   100    1
   104    37   101    1
   105    38    39    1
   106    38   102    1
   107    38   103    1
   108    39    40    2
   109    39   104    1
   110    40    41    1
   111    40    42    1
   112    41   105    1
   113    41   106    1
   114    41   107    1
   115    42   108    1
   116    42   109    1
   117    42   110    1
   118   111   112    1
   119   111   152    1
   120   111   153    1
   121   111   154    1
   122   112   113    1
   123   112   155    1
   124   112   156    1
   125   113   114    1
   126   113   157    1
   127   113   158    1
   128   114   115    1
   129   114   159    1
   130   114   160    1
   131   115   116    1
   132   115   161    1
   133   115   162    1
   134   116   117    1
   135   116   163    1
   136   116   164    1
   137   117   118    1
   138   117   128    1
   139   118   119    1
   140   118   165    1
   141   118   166    1
   142   119   120    1
   143   119   167    1
   144   119   168    1
   145   120   121    1
   146   120   122    1
   147   120   169    1
   148   121   170    1
   149   121   171    1
   150   121   172    1
   151   122   123    1
   152   122   173    1
   153   122   174    1
   154   123   124    1
   155   123   175    1
   156   123   176    1
   157   124   125    2
   158   124   177    1
   159   125   126    1
   160   125   127    1
   161   126   178    1
   162   126   179    1
   163   126   180    1
   164   127   181    1
   165   127   182    1
   166   127   183    1
   167   128   129    2
   168   128   130    1
   169   130   131    1
   170   130   184    1
   171   130   185    1
   172   131   132    1
   173   132   133    1
   174   132   186    1
   175   132   187    1
   176   133   134    2
   177   133   135    1
   178   135   136    1
   179   135   142    1
   180   136   137    1
   181   136   188    1
   182   136   189    1
   183   137   138    1
   184   137   190    1
   185   137   191    1
   186   138   139    1
   187   138   192    1
   188   138   193    1
   189   139   140    1
   190   139   194    1
   191   139   195    1
   192   140   141    1
   193   140   196    1
   194   140   197    1
   195   141   198    1
   196   141   199    1
   197   141   200    1
   198   142   143    1
   199   142   201    1
   200   142   202    1
   201   143   144    1
   202   143   203    1
   203   143   204    1
   204   144   145    1
   205   144   146    1
   206   144   205    1
   207   145   206    1
   208   145   207    1
   209   145   208    1
   210   146   147    1
   211   146   209    1
   212   146   210    1
   213   147   148    1
   214   147   211    1
   215   147   212    1
   216   148   149    2
   217   148   213    1
   218   149   150    1
   219   149   151    1
   220   150   214    1
   221   150   215    1
   222   150   216    1
   223   151   217    1
   224   151   218    1
   225   151   219    1
   226   220   221    1
   227   220   261    1
   228   220   262    1
   229   220   263    1
   230   221   222    1
   231   221   264    1
   232   221   265    1
   233   222   223    1
   234   222   266    1
   235   222   267    1
   236   223   224    1
   237   223   268    1
   238   223   269    1
   239   224   225    1
   240   224   270    1
   241   224   271    1
   242   225   226    1
   243   225   272    1
   244   225   273    1
   245   226   227    1
   246   226   237    1
   247   227   228    1
   248   227   274    1
   249   227   275    1
   250   228   229    1
   251   228   276    1
   252   228   277    1
   253   229   230    1
   254   229   231    1
   255   229   278    1
   256   230   279    1
   257   230   280    1
   258   230   281    1
   259   231   232    1
   260   231   282    1
   261   231   283    1
   262   232   233    1
   263   232   284    1
   264   232   285    1
   265   233   234    2
   266   233   286    1
   267   234   235    1
   268   234   236    1
   269   235   287    1
   270   235   288    1
   271   235   289    1
   272   236   290    1
   273   236   291    1
   274   236   292    1
   275   237   238    2
   276   237   239    1
   277   239   240    1
   278   239   293    1
   279   239   294    1
   280   240   241    1
   281   241   242    1
   282   241   295    1
   283   241   296    1
   284   242   243    2
   285   242   244    1
   286   244   245    1
   287   244   251    1
   288   245   246    1
   289   245   297    1
   290   245   298    1
   291   246   247    1
   292   246   299    1
   293   246   300    1
   294   247   248    1
   295   247   301    1
   296   247   302    1
   297   248   249    1
   298   248   303    1
   299   248   304    1
   300   249   250    1
   301   249   305    1
   302   249   306    1
   303   250   307    1
   304   250   308    1
   305   250   309    1
   306   251   252    1
   307   251   310    1
   308   251   311    1
   309   252   253    1
   310   252   312    1
   311   252   313    1
   312   253   254    1
   313   253   255    1
   314   253   314    1
   315   254   315    1
   316   254   316    1
   317   254   317    1
   318   255   256    1
   319   255   318    1
   320   255   319    1
   321   256   257    1
   322   256   320    1
   323   256   321    1
   324   257   258    2
   325   257   322    1
   326   258   259    1
   327   258   260    1
   328   259   323    1
   329   259   324    1
   330   259   325    1
   331   260   326    1
   332   260   327    1
   333   260   328    1
@<TRIPOS>SUBSTRUCTURE
     1 RES1      328 GROUP             0 ****  ****    0  
