@<TRIPOS>MOLECULE
am_c3_9H2O_c0_0_nunpairedes_0_charge_3 Charge: 3 Unpaired_Electrons: 2 XTB_Unpaired_Electrons: 0 XTB_Charge: 3
   272   275     1     0     0
SMALL
NoCharges
****
Generated from Architector

@<TRIPOS>ATOM
     1 Pr1       0.1584   -0.0785   -0.0298   Pr        1 RES1   0.0000
     2 C1        4.1309    1.6476    5.2223   C.3       1 RES1   0.0000
     3 C2        3.2667    1.6985    6.4815   C.3       1 RES1   0.0000
     4 C3        1.8446    2.2287    6.2728   C.3       1 RES1   0.0000
     5 C4        1.7644    3.6363    5.6656   C.3       1 RES1   0.0000
     6 C5        1.5509    3.6257    4.1551   C.3       1 RES1   0.0000
     7 C6        1.3908    5.0432    3.6162   C.3       1 RES1   0.0000
     8 C7        0.8830    5.0587    2.1788   C.3       1 RES1   0.0000
     9 C8        1.9572    4.5871    1.2024   C.3       1 RES1   0.0000
    10 N1        1.4151    4.4026   -0.1376   N.am      1 RES1   0.0000
    11 C9        1.1408    5.6100   -0.8954   C.3       1 RES1   0.0000
    12 C10       1.1036    3.1818   -0.5581   C.2       1 RES1   0.0000
    13 O1        1.2004    2.1683    0.1493   O.2       1 RES1   0.0000
    14 C11       0.5659    3.0324   -1.9768   C.3       1 RES1   0.0000
    15 C12      -0.8850    2.6028   -1.8553   C.2       1 RES1   0.0000
    16 O2       -1.1822    1.6842   -1.0733   O.2       1 RES1   0.0000
    17 N2       -1.7992    3.1941   -2.6190   N.am      1 RES1   0.0000
    18 C13      -1.5043    4.2942   -3.5188   C.3       1 RES1   0.0000
    19 C14      -3.1267    2.5940   -2.6732   C.3       1 RES1   0.0000
    20 C15      -4.1462    3.1016   -1.6542   C.3       1 RES1   0.0000
    21 C16      -5.4885    2.4218   -1.9425   C.3       1 RES1   0.0000
    22 C17      -6.6465    2.9020   -1.0647   C.3       1 RES1   0.0000
    23 C18      -7.9840    2.2884   -1.5103   C.3       1 RES1   0.0000
    24 C19      -8.2615    0.8733   -0.9865   C.3       1 RES1   0.0000
    25 C20      -8.6610    0.8675    0.4908   C.3       1 RES1   0.0000
    26 C21      -8.9892   -0.5236    1.0212   C.3       1 RES1   0.0000
    27 H1        4.4408    2.6493    4.9313   H         1 RES1   0.0000
    28 H2        3.5883    1.1967    4.3938   H         1 RES1   0.0000
    29 H3        5.0342    1.0704    5.4185   H         1 RES1   0.0000
    30 H4        3.7649    2.3184    7.2264   H         1 RES1   0.0000
    31 H5        3.1915    0.7027    6.9329   H         1 RES1   0.0000
    32 H6        1.3668    2.2410    7.2565   H         1 RES1   0.0000
    33 H7        1.2850    1.5326    5.6366   H         1 RES1   0.0000
    34 H8        2.6620    4.2054    5.9100   H         1 RES1   0.0000
    35 H9        0.9296    4.1716    6.1191   H         1 RES1   0.0000
    36 H10       0.6489    3.0529    3.9223   H         1 RES1   0.0000
    37 H11       2.3892    3.1283    3.6705   H         1 RES1   0.0000
    38 H12       2.3429    5.5692    3.6754   H         1 RES1   0.0000
    39 H13       0.6808    5.5866    4.2385   H         1 RES1   0.0000
    40 H14       0.5612    6.0629    1.8989   H         1 RES1   0.0000
    41 H15       0.0223    4.3913    2.0886   H         1 RES1   0.0000
    42 H16       2.3612    3.6269    1.5257   H         1 RES1   0.0000
    43 H17       2.7610    5.3250    1.1479   H         1 RES1   0.0000
    44 H18       1.4206    6.4732   -0.2984   H         1 RES1   0.0000
    45 H19       0.0790    5.6968   -1.1334   H         1 RES1   0.0000
    46 H20       1.7334    5.6504   -1.8101   H         1 RES1   0.0000
    47 H21       1.0830    2.1613   -2.3932   H         1 RES1   0.0000
    48 H22       0.7298    3.8994   -2.6051   H         1 RES1   0.0000
    49 H23      -0.9939    5.1020   -2.9979   H         1 RES1   0.0000
    50 H24      -2.4361    4.6827   -3.9210   H         1 RES1   0.0000
    51 H25      -0.8877    3.9779   -4.3653   H         1 RES1   0.0000
    52 H26      -2.9990    1.5144   -2.5437   H         1 RES1   0.0000
    53 H27      -3.5336    2.7812   -3.6643   H         1 RES1   0.0000
    54 H28      -4.2486    4.1834   -1.7466   H         1 RES1   0.0000
    55 H29      -3.8203    2.8689   -0.6397   H         1 RES1   0.0000
    56 H30      -5.3573    1.3422   -1.8306   H         1 RES1   0.0000
    57 H31      -5.7621    2.6104   -2.9827   H         1 RES1   0.0000
    58 H32      -6.7229    3.9876   -1.1425   H         1 RES1   0.0000
    59 H33      -6.4531    2.6713   -0.0161   H         1 RES1   0.0000
    60 H34      -7.9970    2.2709   -2.6031   H         1 RES1   0.0000
    61 H35      -8.8066    2.9270   -1.1816   H         1 RES1   0.0000
    62 H36      -7.3906    0.2323   -1.1567   H         1 RES1   0.0000
    63 H37      -9.0866    0.4449   -1.5607   H         1 RES1   0.0000
    64 H38      -9.5423    1.4996    0.6028   H         1 RES1   0.0000
    65 H39      -7.8676    1.3108    1.0987   H         1 RES1   0.0000
    66 H40      -9.7975   -0.9741    0.4520   H         1 RES1   0.0000
    67 H41      -9.3021   -0.4626    2.0600   H         1 RES1   0.0000
    68 H42      -8.1272   -1.1871    0.9672   H         1 RES1   0.0000
    69 C22       6.7127    2.4245   -0.0521   C.3       1 RES1   0.0000
    70 C23       7.6729    1.8011   -1.0624   C.3       1 RES1   0.0000
    71 C24       7.4801    0.2934   -1.2534   C.3       1 RES1   0.0000
    72 C25       7.6723   -0.4935    0.0503   C.3       1 RES1   0.0000
    73 C26       6.3518   -0.9265    0.6967   C.3       1 RES1   0.0000
    74 C27       6.5042   -1.0082    2.2117   C.3       1 RES1   0.0000
    75 C28       5.2740   -1.5293    2.9623   C.3       1 RES1   0.0000
    76 C29       4.0043   -0.8032    2.5331   C.3       1 RES1   0.0000
    77 N3        2.8212   -0.9549    3.3946   N.am      1 RES1   0.0000
    78 C30       2.8849   -1.5207    4.7251   C.3       1 RES1   0.0000
    79 C31       1.6864   -0.4917    2.8697   C.2       1 RES1   0.0000
    80 O3        1.6631    0.0067    1.7322   O.2       1 RES1   0.0000
    81 C32       0.3860   -0.6235    3.6546   C.3       1 RES1   0.0000
    82 C33      -0.4477   -1.6874    2.9469   C.2       1 RES1   0.0000
    83 O4       -0.5844   -1.6485    1.7110   O.2       1 RES1   0.0000
    84 N4       -1.0162   -2.6430    3.6826   N.am      1 RES1   0.0000
    85 C34      -0.9775   -2.6556    5.1324   C.3       1 RES1   0.0000
    86 C35      -1.7689   -3.6947    3.0066   C.3       1 RES1   0.0000
    87 C36      -0.8971   -4.7413    2.3080   C.3       1 RES1   0.0000
    88 C37      -1.7542   -5.9669    1.9743   C.3       1 RES1   0.0000
    89 C38      -1.0219   -7.0872    1.2170   C.3       1 RES1   0.0000
    90 C39      -1.3958   -7.1771   -0.2648   C.3       1 RES1   0.0000
    91 C40      -0.9282   -5.9782   -1.0851   C.3       1 RES1   0.0000
    92 C41      -1.2371   -6.1467   -2.5702   C.3       1 RES1   0.0000
    93 C42      -0.6926   -4.9858   -3.3919   C.3       1 RES1   0.0000
    94 H43       6.8425    3.5049   -0.0387   H         1 RES1   0.0000
    95 H44       6.9111    2.0584    0.9524   H         1 RES1   0.0000
    96 H45       5.6742    2.2031   -0.3007   H         1 RES1   0.0000
    97 H46       8.6974    1.9808   -0.7303   H         1 RES1   0.0000
    98 H47       7.5557    2.2991   -2.0299   H         1 RES1   0.0000
    99 H48       8.2044   -0.0390   -1.9997   H         1 RES1   0.0000
   100 H49       6.4806    0.0997   -1.6561   H         1 RES1   0.0000
   101 H50       8.2365    0.1272    0.7468   H         1 RES1   0.0000
   102 H51       8.2779   -1.3806   -0.1298   H         1 RES1   0.0000
   103 H52       6.0577   -1.8975    0.2896   H         1 RES1   0.0000
   104 H53       5.5660   -0.2096    0.4541   H         1 RES1   0.0000
   105 H54       6.7454   -0.0101    2.5832   H         1 RES1   0.0000
   106 H55       7.3462   -1.6584    2.4533   H         1 RES1   0.0000
   107 H56       5.4676   -1.3759    4.0239   H         1 RES1   0.0000
   108 H57       5.1603   -2.6002    2.7845   H         1 RES1   0.0000
   109 H58       3.6947   -1.1520    1.5400   H         1 RES1   0.0000
   110 H59       4.2201    0.2661    2.4349   H         1 RES1   0.0000
   111 H60       3.8264   -2.0406    4.8642   H         1 RES1   0.0000
   112 H61       2.0820   -2.2448    4.8550   H         1 RES1   0.0000
   113 H62       2.8149   -0.7463    5.4913   H         1 RES1   0.0000
   114 H63      -0.1422    0.3255    3.5196   H         1 RES1   0.0000
   115 H64       0.5362   -0.8118    4.7112   H         1 RES1   0.0000
   116 H65       0.0305   -2.8422    5.5046   H         1 RES1   0.0000
   117 H66      -1.6166   -3.4550    5.4947   H         1 RES1   0.0000
   118 H67      -1.3595   -1.7223    5.5480   H         1 RES1   0.0000
   119 H68      -2.4326   -3.2331    2.2680   H         1 RES1   0.0000
   120 H69      -2.3762   -4.2105    3.7504   H         1 RES1   0.0000
   121 H70      -0.0906   -5.0479    2.9758   H         1 RES1   0.0000
   122 H71      -0.4546   -4.3084    1.4099   H         1 RES1   0.0000
   123 H72      -2.6204   -5.6527    1.3897   H         1 RES1   0.0000
   124 H73      -2.1357   -6.3720    2.9125   H         1 RES1   0.0000
   125 H74      -1.2792   -8.0462    1.6693   H         1 RES1   0.0000
   126 H75       0.0581   -6.9591    1.3183   H         1 RES1   0.0000
   127 H76      -2.4792   -7.2884   -0.3515   H         1 RES1   0.0000
   128 H77      -0.9505   -8.0795   -0.6887   H         1 RES1   0.0000
   129 H78       0.1508   -5.8615   -0.9539   H         1 RES1   0.0000
   130 H79      -1.4077   -5.0663   -0.7170   H         1 RES1   0.0000
   131 H80      -2.3165   -6.2297   -2.7091   H         1 RES1   0.0000
   132 H81      -0.7922   -7.0763   -2.9262   H         1 RES1   0.0000
   133 H82      -1.0231   -4.0335   -2.9804   H         1 RES1   0.0000
   134 H83      -1.0253   -5.0592   -4.4223   H         1 RES1   0.0000
   135 H84       0.3947   -4.9998   -3.3884   H         1 RES1   0.0000
   136 C43       0.4962   -6.0755    5.8324   C.3       1 RES1   0.0000
   137 C44       1.5770   -5.7516    6.8593   C.3       1 RES1   0.0000
   138 C45       2.7620   -4.9625    6.2953   C.3       1 RES1   0.0000
   139 C46       3.4467   -5.6171    5.0862   C.3       1 RES1   0.0000
   140 C47       3.0443   -5.0130    3.7399   C.3       1 RES1   0.0000
   141 C48       3.7025   -5.7672    2.5852   C.3       1 RES1   0.0000
   142 C49       3.8595   -4.9290    1.3159   C.3       1 RES1   0.0000
   143 C50       2.5037   -4.5593    0.7065   C.3       1 RES1   0.0000
   144 N5        2.6226   -4.0328   -0.6504   N.am      1 RES1   0.0000
   145 C51       3.2573   -4.9199   -1.6078   C.3       1 RES1   0.0000
   146 C52       2.1147   -2.8391   -0.9664   C.2       1 RES1   0.0000
   147 O5        1.4433   -2.1683   -0.1672   O.2       1 RES1   0.0000
   148 C53       2.3963   -2.3410   -2.3820   C.3       1 RES1   0.0000
   149 C54       2.5064   -0.8263   -2.4990   C.2       1 RES1   0.0000
   150 O6        1.7169   -0.0533   -1.9256   O.2       1 RES1   0.0000
   151 N6        3.4327   -0.3536   -3.3372   N.am      1 RES1   0.0000
   152 C55       4.5996   -1.0415   -3.8562   C.3       1 RES1   0.0000
   153 C56       3.3023    1.0165   -3.8062   C.3       1 RES1   0.0000
   154 C57       4.1113    2.0310   -3.0033   C.3       1 RES1   0.0000
   155 C58       4.0037    3.4140   -3.6531   C.3       1 RES1   0.0000
   156 C59       5.1444    4.3610   -3.2415   C.3       1 RES1   0.0000
   157 C60       4.6965    5.7467   -2.7405   C.3       1 RES1   0.0000
   158 C61       4.8476    5.8742   -1.2214   C.3       1 RES1   0.0000
   159 C62       4.9560    7.3168   -0.7250   C.3       1 RES1   0.0000
   160 C63       3.6745    8.1345   -0.8266   C.3       1 RES1   0.0000
   161 H85      -0.3852   -6.4661    6.3363   H         1 RES1   0.0000
   162 H86       0.8369   -6.8272    5.1232   H         1 RES1   0.0000
   163 H87       0.2094   -5.1812    5.2825   H         1 RES1   0.0000
   164 H88       1.9391   -6.6838    7.2946   H         1 RES1   0.0000
   165 H89       1.1338   -5.1649    7.6693   H         1 RES1   0.0000
   166 H90       3.4846   -4.8474    7.1047   H         1 RES1   0.0000
   167 H91       2.4255   -3.9576    6.0291   H         1 RES1   0.0000
   168 H92       3.2212   -6.6832    5.0810   H         1 RES1   0.0000
   169 H93       4.5292   -5.5167    5.1870   H         1 RES1   0.0000
   170 H94       3.3574   -3.9693    3.7124   H         1 RES1   0.0000
   171 H95       1.9614   -5.0369    3.6205   H         1 RES1   0.0000
   172 H96       3.1279   -6.6661    2.3551   H         1 RES1   0.0000
   173 H97       4.6940   -6.0970    2.8971   H         1 RES1   0.0000
   174 H98       4.4489   -5.5005    0.5979   H         1 RES1   0.0000
   175 H99       4.4124   -4.0162    1.5425   H         1 RES1   0.0000
   176 H100      2.0086   -3.7971    1.3105   H         1 RES1   0.0000
   177 H101      1.8638   -5.4485    0.6864   H         1 RES1   0.0000
   178 H102      3.2628   -5.9234   -1.1881   H         1 RES1   0.0000
   179 H103      4.2908   -4.6282   -1.8106   H         1 RES1   0.0000
   180 H104      2.6986   -4.9589   -2.5416   H         1 RES1   0.0000
   181 H105      1.5308   -2.6382   -2.9912   H         1 RES1   0.0000
   182 H106      3.2806   -2.8155   -2.7964   H         1 RES1   0.0000
   183 H107      5.0132   -1.7443   -3.1391   H         1 RES1   0.0000
   184 H108      5.3655   -0.2924   -4.0581   H         1 RES1   0.0000
   185 H109      4.3878   -1.5535   -4.7975   H         1 RES1   0.0000
   186 H110      2.2413    1.2763   -3.7773   H         1 RES1   0.0000
   187 H111      3.6344    1.0458   -4.8480   H         1 RES1   0.0000
   188 H112      5.1563    1.7183   -2.9887   H         1 RES1   0.0000
   189 H113      3.7556    2.0633   -1.9701   H         1 RES1   0.0000
   190 H114      3.0360    3.8521   -3.4047   H         1 RES1   0.0000
   191 H115      4.0201    3.2956   -4.7388   H         1 RES1   0.0000
   192 H116      5.8114    4.4941   -4.0942   H         1 RES1   0.0000
   193 H117      5.7308    3.8779   -2.4590   H         1 RES1   0.0000
   194 H118      3.6691    5.9374   -3.0600   H         1 RES1   0.0000
   195 H119      5.3072    6.5193   -3.2091   H         1 RES1   0.0000
   196 H120      5.7823    5.3824   -0.9492   H         1 RES1   0.0000
   197 H121      4.0431    5.3304   -0.7214   H         1 RES1   0.0000
   198 H122      5.7447    7.8000   -1.3033   H         1 RES1   0.0000
   199 H123      5.2837    7.3035    0.3169   H         1 RES1   0.0000
   200 H124      3.1903    7.9966   -1.7896   H         1 RES1   0.0000
   201 H125      3.9007    9.1894   -0.7079   H         1 RES1   0.0000
   202 H126      2.9759    7.8636   -0.0377   H         1 RES1   0.0000
   203 C64      -5.5110    5.4791   -5.9466   C.3       1 RES1   0.0000
   204 C65      -4.3859    4.4487   -5.9870   C.3       1 RES1   0.0000
   205 C66      -4.7482    3.1679   -6.7427   C.3       1 RES1   0.0000
   206 C67      -3.5371    2.3041   -7.1340   C.3       1 RES1   0.0000
   207 C68      -2.9131    1.5688   -5.9434   C.3       1 RES1   0.0000
   208 C69      -1.8480    0.5349   -6.3207   C.3       1 RES1   0.0000
   209 C70      -1.0277    0.0396   -5.1098   C.3       1 RES1   0.0000
   210 C71      -1.2440   -1.4266   -4.7025   C.3       1 RES1   0.0000
   211 N7       -2.2558   -1.6368   -3.6714   N.am      1 RES1   0.0000
   212 C72      -3.5870   -2.0000   -4.1144   C.3       1 RES1   0.0000
   213 C73      -1.8549   -1.6041   -2.3967   C.2       1 RES1   0.0000
   214 O7       -0.7363   -1.1669   -2.0774   O.2       1 RES1   0.0000
   215 C74      -2.7378   -2.2174   -1.3173   C.3       1 RES1   0.0000
   216 C75      -3.1875   -1.1551   -0.3247   C.2       1 RES1   0.0000
   217 O8       -2.3556   -0.3747    0.1649   O.2       1 RES1   0.0000
   218 N8       -4.4854   -1.0839   -0.0297   N.am      1 RES1   0.0000
   219 C76      -5.4867   -2.0482   -0.4536   C.3       1 RES1   0.0000
   220 C77      -4.9667    0.0313    0.7819   C.3       1 RES1   0.0000
   221 C78      -5.2942   -0.3574    2.2270   C.3       1 RES1   0.0000
   222 C79      -4.1121   -0.2198    3.1872   C.3       1 RES1   0.0000
   223 C80      -4.4609   -0.7233    4.5898   C.3       1 RES1   0.0000
   224 C81      -4.6996   -2.2294    4.6184   C.3       1 RES1   0.0000
   225 C82      -4.8821   -2.7847    6.0287   C.3       1 RES1   0.0000
   226 C83      -4.6811   -4.3000    6.0969   C.3       1 RES1   0.0000
   227 C84      -5.5600   -5.0922    5.1329   C.3       1 RES1   0.0000
   228 H127     -5.1802    6.3573   -5.3945   H         1 RES1   0.0000
   229 H128     -6.4023    5.0820   -5.4627   H         1 RES1   0.0000
   230 H129     -5.7823    5.7939   -6.9492   H         1 RES1   0.0000
   231 H130     -4.1303    4.2049   -4.9555   H         1 RES1   0.0000
   232 H131     -3.5020    4.8916   -6.4531   H         1 RES1   0.0000
   233 H132     -5.2604    3.4620   -7.6588   H         1 RES1   0.0000
   234 H133     -5.4457    2.5693   -6.1480   H         1 RES1   0.0000
   235 H134     -2.7867    2.9463   -7.6035   H         1 RES1   0.0000
   236 H135     -3.8577    1.5687   -7.8742   H         1 RES1   0.0000
   237 H136     -3.7124    1.0877   -5.3723   H         1 RES1   0.0000
   238 H137     -2.4352    2.3103   -5.3067   H         1 RES1   0.0000
   239 H138     -1.1725    0.9901   -7.0474   H         1 RES1   0.0000
   240 H139     -2.3150   -0.3077   -6.8298   H         1 RES1   0.0000
   241 H140     -1.2216    0.6627   -4.2326   H         1 RES1   0.0000
   242 H141      0.0331    0.1536   -5.3424   H         1 RES1   0.0000
   243 H142     -0.3079   -1.8110   -4.2890   H         1 RES1   0.0000
   244 H143     -1.4992   -2.0430   -5.5664   H         1 RES1   0.0000
   245 H144     -3.7262   -1.6175   -5.1232   H         1 RES1   0.0000
   246 H145     -4.3490   -1.5544   -3.4767   H         1 RES1   0.0000
   247 H146     -3.7165   -3.0858   -4.1504   H         1 RES1   0.0000
   248 H147     -2.0602   -2.8741   -0.7533   H         1 RES1   0.0000
   249 H148     -3.5603   -2.7844   -1.7391   H         1 RES1   0.0000
   250 H149     -5.7103   -1.9664   -1.5200   H         1 RES1   0.0000
   251 H150     -6.4117   -1.8494    0.0852   H         1 RES1   0.0000
   252 H151     -5.1902   -3.0720   -0.2240   H         1 RES1   0.0000
   253 H152     -5.8585    0.4197    0.2886   H         1 RES1   0.0000
   254 H153     -4.1997    0.8085    0.7593   H         1 RES1   0.0000
   255 H154     -5.6681   -1.3799    2.2392   H         1 RES1   0.0000
   256 H155     -6.1057    0.2734    2.5928   H         1 RES1   0.0000
   257 H156     -3.8451    0.8390    3.2504   H         1 RES1   0.0000
   258 H157     -3.2441   -0.7687    2.8054   H         1 RES1   0.0000
   259 H158     -5.3412   -0.1935    4.9526   H         1 RES1   0.0000
   260 H159     -3.6352   -0.4763    5.2600   H         1 RES1   0.0000
   261 H160     -3.8453   -2.7086    4.1437   H         1 RES1   0.0000
   262 H161     -5.5880   -2.4766    4.0394   H         1 RES1   0.0000
   263 H162     -5.8828   -2.5369    6.3807   H         1 RES1   0.0000
   264 H163     -4.1711   -2.3167    6.7128   H         1 RES1   0.0000
   265 H164     -4.8921   -4.6315    7.1141   H         1 RES1   0.0000
   266 H165     -3.6309   -4.5366    5.8954   H         1 RES1   0.0000
   267 H166     -6.6063   -4.8202    5.2505   H         1 RES1   0.0000
   268 H167     -5.4660   -6.1579    5.3335   H         1 RES1   0.0000
   269 H168     -5.2744   -4.9189    4.0956   H         1 RES1   0.0000
   270 O9       -1.0877    1.4209    1.8829   O.3       1 RES1   0.0000
   271 H169     -1.9635    1.0107    1.7974   H         1 RES1   0.0000
   272 H170     -1.1564    2.3255    1.5411   H         1 RES1   0.0000
@<TRIPOS>BOND
     1     1    13    1
     2     1    16    1
     3     1    80    1
     4     1    83    1
     5     1   147    1
     6     1   150    1
     7     1   214    1
     8     1   217    1
     9     1   270    1
    10     2     3    1
    11     2    27    1
    12     2    28    1
    13     2    29    1
    14     3     4    1
    15     3    30    1
    16     3    31    1
    17     4     5    1
    18     4    32    1
    19     4    33    1
    20     5     6    1
    21     5    34    1
    22     5    35    1
    23     6     7    1
    24     6    36    1
    25     6    37    1
    26     7     8    1
    27     7    38    1
    28     7    39    1
    29     8     9    1
    30     8    40    1
    31     8    41    1
    32     9    10    1
    33     9    42    1
    34     9    43    1
    35    10    11    1
    36    10    12    1
    37    11    44    1
    38    11    45    1
    39    11    46    1
    40    12    13    2
    41    12    14    1
    42    14    15    1
    43    14    47    1
    44    14    48    1
    45    15    16    2
    46    15    17    1
    47    17    18    1
    48    17    19    1
    49    18    49    1
    50    18    50    1
    51    18    51    1
    52    19    20    1
    53    19    52    1
    54    19    53    1
    55    20    21    1
    56    20    54    1
    57    20    55    1
    58    21    22    1
    59    21    56    1
    60    21    57    1
    61    22    23    1
    62    22    58    1
    63    22    59    1
    64    23    24    1
    65    23    60    1
    66    23    61    1
    67    24    25    1
    68    24    62    1
    69    24    63    1
    70    25    26    1
    71    25    64    1
    72    25    65    1
    73    26    66    1
    74    26    67    1
    75    26    68    1
    76    69    70    1
    77    69    94    1
    78    69    95    1
    79    69    96    1
    80    70    71    1
    81    70    97    1
    82    70    98    1
    83    71    72    1
    84    71    99    1
    85    71   100    1
    86    72    73    1
    87    72   101    1
    88    72   102    1
    89    73    74    1
    90    73   103    1
    91    73   104    1
    92    74    75    1
    93    74   105    1
    94    74   106    1
    95    75    76    1
    96    75   107    1
    97    75   108    1
    98    76    77    1
    99    76   109    1
   100    76   110    1
   101    77    78    1
   102    77    79    1
   103    78   111    1
   104    78   112    1
   105    78   113    1
   106    79    80    2
   107    79    81    1
   108    81    82    1
   109    81   114    1
   110    81   115    1
   111    82    83    2
   112    82    84    1
   113    84    85    1
   114    84    86    1
   115    85   116    1
   116    85   117    1
   117    85   118    1
   118    86    87    1
   119    86   119    1
   120    86   120    1
   121    87    88    1
   122    87   121    1
   123    87   122    1
   124    88    89    1
   125    88   123    1
   126    88   124    1
   127    89    90    1
   128    89   125    1
   129    89   126    1
   130    90    91    1
   131    90   127    1
   132    90   128    1
   133    91    92    1
   134    91   129    1
   135    91   130    1
   136    92    93    1
   137    92   131    1
   138    92   132    1
   139    93   133    1
   140    93   134    1
   141    93   135    1
   142   136   137    1
   143   136   161    1
   144   136   162    1
   145   136   163    1
   146   137   138    1
   147   137   164    1
   148   137   165    1
   149   138   139    1
   150   138   166    1
   151   138   167    1
   152   139   140    1
   153   139   168    1
   154   139   169    1
   155   140   141    1
   156   140   170    1
   157   140   171    1
   158   141   142    1
   159   141   172    1
   160   141   173    1
   161   142   143    1
   162   142   174    1
   163   142   175    1
   164   143   144    1
   165   143   176    1
   166   143   177    1
   167   144   145    1
   168   144   146    1
   169   145   178    1
   170   145   179    1
   171   145   180    1
   172   146   147    2
   173   146   148    1
   174   148   149    1
   175   148   181    1
   176   148   182    1
   177   149   150    2
   178   149   151    1
   179   151   152    1
   180   151   153    1
   181   152   183    1
   182   152   184    1
   183   152   185    1
   184   153   154    1
   185   153   186    1
   186   153   187    1
   187   154   155    1
   188   154   188    1
   189   154   189    1
   190   155   156    1
   191   155   190    1
   192   155   191    1
   193   156   157    1
   194   156   192    1
   195   156   193    1
   196   157   158    1
   197   157   194    1
   198   157   195    1
   199   158   159    1
   200   158   196    1
   201   158   197    1
   202   159   160    1
   203   159   198    1
   204   159   199    1
   205   160   200    1
   206   160   201    1
   207   160   202    1
   208   203   204    1
   209   203   228    1
   210   203   229    1
   211   203   230    1
   212   204   205    1
   213   204   231    1
   214   204   232    1
   215   205   206    1
   216   205   233    1
   217   205   234    1
   218   206   207    1
   219   206   235    1
   220   206   236    1
   221   207   208    1
   222   207   237    1
   223   207   238    1
   224   208   209    1
   225   208   239    1
   226   208   240    1
   227   209   210    1
   228   209   241    1
   229   209   242    1
   230   210   211    1
   231   210   243    1
   232   210   244    1
   233   211   212    1
   234   211   213    1
   235   212   245    1
   236   212   246    1
   237   212   247    1
   238   213   214    2
   239   213   215    1
   240   215   216    1
   241   215   248    1
   242   215   249    1
   243   216   217    2
   244   216   218    1
   245   218   219    1
   246   218   220    1
   247   219   250    1
   248   219   251    1
   249   219   252    1
   250   220   221    1
   251   220   253    1
   252   220   254    1
   253   221   222    1
   254   221   255    1
   255   221   256    1
   256   222   223    1
   257   222   257    1
   258   222   258    1
   259   223   224    1
   260   223   259    1
   261   223   260    1
   262   224   225    1
   263   224   261    1
   264   224   262    1
   265   225   226    1
   266   225   263    1
   267   225   264    1
   268   226   227    1
   269   226   265    1
   270   226   266    1
   271   227   267    1
   272   227   268    1
   273   227   269    1
   274   270   271    1
   275   270   272    1
@<TRIPOS>SUBSTRUCTURE
     1 RES1      272 GROUP             0 ****  ****    0  
