@<TRIPOS>MOLECULE
tri_tri_mer_capped_0_nunpairedes_0_charge_3 Charge: 3 Unpaired_Electrons: 2 XTB_Unpaired_Electrons: 0 XTB_Charge: 3
   277   282     1     0     0
SMALL
NoCharges
****
Generated from Architector

@<TRIPOS>ATOM
     1 Pr1      -0.0435   -0.0924    0.1729   Pr        1 RES1   0.0000
     2 C1        7.4883    4.5908   -1.0926   C.3       1 RES1   0.0000
     3 C2        8.2607    3.3434   -1.5096   C.3       1 RES1   0.0000
     4 C3        7.7851    2.7340   -2.8307   C.3       1 RES1   0.0000
     5 C4        6.3482    2.2117   -2.8373   C.3       1 RES1   0.0000
     6 C5        6.1307    0.9645   -1.9778   C.3       1 RES1   0.0000
     7 C6        4.6656    0.5158   -2.0093   C.3       1 RES1   0.0000
     8 C7        4.4632   -0.9712   -1.7204   C.3       1 RES1   0.0000
     9 C8        4.9717   -1.4444   -0.3647   C.3       1 RES1   0.0000
    10 N1        4.4327   -0.7760    0.8226   N.am      1 RES1   0.0000
    11 C9        5.4672   -0.5706    1.8194   C.3       1 RES1   0.0000
    12 C10       3.1332   -0.5770    1.0029   C.2       1 RES1   0.0000
    13 O1        2.2590   -0.8645    0.1637   O.2       1 RES1   0.0000
    14 C11       2.6813    0.0256    2.3450   C.3       1 RES1   0.0000
    15 O2        1.3064    0.4330    2.2613   O.3       1 RES1   0.0000
    16 C12       0.4962   -0.0210    3.3429   C.3       1 RES1   0.0000
    17 C13      -0.0976   -1.4188    3.0170   C.2       1 RES1   0.0000
    18 O3       -0.0624   -1.7487    1.8177   O.2       1 RES1   0.0000
    19 N2       -0.5644   -2.1630    4.0106   N.am      1 RES1   0.0000
    20 C14      -0.5420   -1.6920    5.3966   C.3       1 RES1   0.0000
    21 C15      -1.6653   -0.7024    5.7303   C.3       1 RES1   0.0000
    22 C16      -1.3285    0.1503    6.9677   C.3       1 RES1   0.0000
    23 C17      -1.0773    1.6216    6.6225   C.3       1 RES1   0.0000
    24 C18      -2.3890    2.3444    6.3099   C.3       1 RES1   0.0000
    25 C19      -2.2263    3.7010    5.6262   C.3       1 RES1   0.0000
    26 C20      -1.6864    3.6587    4.1966   C.3       1 RES1   0.0000
    27 C21      -2.5422    2.8521    3.2270   C.3       1 RES1   0.0000
    28 C22      -1.1366   -3.5221    3.8988   C.3       1 RES1   0.0000
    29 C23      -1.3647   -4.1258    2.5138   C.3       1 RES1   0.0000
    30 C24      -2.6140   -3.5939    1.8045   C.3       1 RES1   0.0000
    31 C25      -2.5616   -3.7923    0.2849   C.3       1 RES1   0.0000
    32 C26      -3.9615   -3.8292   -0.3343   C.3       1 RES1   0.0000
    33 C27      -3.9214   -3.7885   -1.8630   C.3       1 RES1   0.0000
    34 C28      -5.3042   -3.7400   -2.5273   C.3       1 RES1   0.0000
    35 C29      -5.9194   -2.3452   -2.6235   C.3       1 RES1   0.0000
    36 H1        7.9780    5.0634   -0.2451   H         1 RES1   0.0000
    37 H2        6.4689    4.3516   -0.7964   H         1 RES1   0.0000
    38 H3        7.4573    5.3040   -1.9128   H         1 RES1   0.0000
    39 H4        8.2223    2.6009   -0.7094   H         1 RES1   0.0000
    40 H5        9.3081    3.6204   -1.6366   H         1 RES1   0.0000
    41 H6        8.4629    1.9230   -3.1049   H         1 RES1   0.0000
    42 H7        7.8612    3.5016   -3.6027   H         1 RES1   0.0000
    43 H8        6.0803    1.9750   -3.8702   H         1 RES1   0.0000
    44 H9        5.6818    3.0085   -2.5047   H         1 RES1   0.0000
    45 H10       6.4437    1.1644   -0.9500   H         1 RES1   0.0000
    46 H11       6.7518    0.1577   -2.3738   H         1 RES1   0.0000
    47 H12       4.2843    0.6986   -3.0182   H         1 RES1   0.0000
    48 H13       4.0661    1.1093   -1.3182   H         1 RES1   0.0000
    49 H14       5.0279   -1.5368   -2.4626   H         1 RES1   0.0000
    50 H15       3.4052   -1.2222   -1.8123   H         1 RES1   0.0000
    51 H16       6.0500   -1.2960   -0.3378   H         1 RES1   0.0000
    52 H17       4.7800   -2.5170   -0.2715   H         1 RES1   0.0000
    53 H18       5.9221   -1.5332    2.0662   H         1 RES1   0.0000
    54 H19       5.1030   -0.1146    2.7290   H         1 RES1   0.0000
    55 H20       6.2435    0.0685    1.3958   H         1 RES1   0.0000
    56 H21       2.8068   -0.7574    3.1018   H         1 RES1   0.0000
    57 H22       3.2839    0.8999    2.6170   H         1 RES1   0.0000
    58 H23      -0.3136    0.7135    3.4403   H         1 RES1   0.0000
    59 H24       1.0800   -0.0120    4.2665   H         1 RES1   0.0000
    60 H25       0.4224   -1.2306    5.6110   H         1 RES1   0.0000
    61 H26      -0.6287   -2.5602    6.0485   H         1 RES1   0.0000
    62 H27      -2.5925   -1.2518    5.8975   H         1 RES1   0.0000
    63 H28      -1.8242   -0.0373    4.8831   H         1 RES1   0.0000
    64 H29      -0.4447   -0.2551    7.4570   H         1 RES1   0.0000
    65 H30      -2.1424    0.0953    7.6901   H         1 RES1   0.0000
    66 H31      -0.3872    1.6921    5.7777   H         1 RES1   0.0000
    67 H32      -0.5982    2.1070    7.4749   H         1 RES1   0.0000
    68 H33      -2.9222    2.5035    7.2474   H         1 RES1   0.0000
    69 H34      -3.0276    1.7120    5.6909   H         1 RES1   0.0000
    70 H35      -1.5607    4.3253    6.2250   H         1 RES1   0.0000
    71 H36      -3.2049    4.1844    5.6040   H         1 RES1   0.0000
    72 H37      -0.6666    3.2676    4.1889   H         1 RES1   0.0000
    73 H38      -1.6494    4.6898    3.8418   H         1 RES1   0.0000
    74 H39      -2.6231    1.8123    3.5324   H         1 RES1   0.0000
    75 H40      -2.1013    2.8631    2.2292   H         1 RES1   0.0000
    76 H41      -3.5423    3.2773    3.1796   H         1 RES1   0.0000
    77 H42      -2.0893   -3.5005    4.4352   H         1 RES1   0.0000
    78 H43      -0.4644   -4.1880    4.4515   H         1 RES1   0.0000
    79 H44      -1.4839   -5.2027    2.6583   H         1 RES1   0.0000
    80 H45      -0.4779   -3.9711    1.9042   H         1 RES1   0.0000
    81 H46      -2.7153   -2.5300    2.0111   H         1 RES1   0.0000
    82 H47      -3.4917   -4.1044    2.2062   H         1 RES1   0.0000
    83 H48      -2.0626   -4.7372    0.0544   H         1 RES1   0.0000
    84 H49      -1.9648   -2.9801   -0.1562   H         1 RES1   0.0000
    85 H50      -4.5692   -3.0103    0.0545   H         1 RES1   0.0000
    86 H51      -4.4510   -4.7517   -0.0245   H         1 RES1   0.0000
    87 H52      -3.4166   -4.6940   -2.2054   H         1 RES1   0.0000
    88 H53      -3.3209   -2.9348   -2.1969   H         1 RES1   0.0000
    89 H54      -5.9876   -4.3952   -1.9864   H         1 RES1   0.0000
    90 H55      -5.2119   -4.1378   -3.5388   H         1 RES1   0.0000
    91 H56      -6.2170   -1.9653   -1.6459   H         1 RES1   0.0000
    92 H57      -6.8125   -2.3845   -3.2443   H         1 RES1   0.0000
    93 H58      -5.2215   -1.6400   -3.0797   H         1 RES1   0.0000
    94 C30       6.9067   -5.6109   -1.5352   C.3       1 RES1   0.0000
    95 C31       6.6516   -4.2006   -2.0547   C.3       1 RES1   0.0000
    96 C32       7.0693   -4.0155   -3.5158   C.3       1 RES1   0.0000
    97 C33       6.1633   -4.6670   -4.5673   C.3       1 RES1   0.0000
    98 C34       5.0063   -3.7792   -5.0447   C.3       1 RES1   0.0000
    99 C35       3.6961   -3.9291   -4.2675   C.3       1 RES1   0.0000
   100 C36       2.6256   -3.0448   -4.9003   C.3       1 RES1   0.0000
   101 C37       1.1880   -3.2671   -4.4184   C.3       1 RES1   0.0000
   102 N3        0.8922   -2.9772   -3.0212   N.am      1 RES1   0.0000
   103 C38       0.7491   -4.0910   -2.1004   C.3       1 RES1   0.0000
   104 C39       0.5739   -1.7856   -2.5403   C.2       1 RES1   0.0000
   105 O4        0.0317   -1.6543   -1.4270   O.2       1 RES1   0.0000
   106 C40       0.9301   -0.5314   -3.3312   C.3       1 RES1   0.0000
   107 O5        0.6869    0.5688   -2.4633   O.3       1 RES1   0.0000
   108 C41       1.3393    1.7900   -2.8171   C.3       1 RES1   0.0000
   109 C42       1.8229    2.4247   -1.5065   C.2       1 RES1   0.0000
   110 O6        1.6297    1.7585   -0.4736   O.2       1 RES1   0.0000
   111 N4        2.4735    3.5919   -1.5388   N.am      1 RES1   0.0000
   112 C43       2.5248    4.5241   -2.6740   C.3       1 RES1   0.0000
   113 C44       1.2116    4.7727   -3.4218   C.3       1 RES1   0.0000
   114 C45       1.0204    6.1923   -4.0006   C.3       1 RES1   0.0000
   115 C46       0.9486    7.3736   -3.0318   C.3       1 RES1   0.0000
   116 C47      -0.3700    7.5102   -2.2747   C.3       1 RES1   0.0000
   117 C48      -1.5539    7.9226   -3.1461   C.3       1 RES1   0.0000
   118 C49      -2.8854    7.8808   -2.3931   C.3       1 RES1   0.0000
   119 C50      -2.8954    8.7216   -1.1231   C.3       1 RES1   0.0000
   120 C51       3.5248    3.8244   -0.5356   C.3       1 RES1   0.0000
   121 C52       3.1677    3.7029    0.9456   C.3       1 RES1   0.0000
   122 C53       4.4379    3.3913    1.7425   C.3       1 RES1   0.0000
   123 C54       4.1713    3.3919    3.2469   C.3       1 RES1   0.0000
   124 C55       5.3069    2.7685    4.0717   C.3       1 RES1   0.0000
   125 C56       4.7720    1.9660    5.2584   C.3       1 RES1   0.0000
   126 C57       5.8728    1.3123    6.0938   C.3       1 RES1   0.0000
   127 C58       6.5539    0.1346    5.4014   C.3       1 RES1   0.0000
   128 H59       6.6873   -5.6729   -0.4705   H         1 RES1   0.0000
   129 H60       7.9498   -5.8835   -1.6795   H         1 RES1   0.0000
   130 H61       6.2888   -6.3414   -2.0517   H         1 RES1   0.0000
   131 H62       7.2389   -3.5010   -1.4546   H         1 RES1   0.0000
   132 H63       5.5955   -3.9525   -1.9269   H         1 RES1   0.0000
   133 H64       8.0763   -4.4232   -3.6212   H         1 RES1   0.0000
   134 H65       7.1347   -2.9454   -3.7352   H         1 RES1   0.0000
   135 H66       5.7776   -5.6160   -4.1994   H         1 RES1   0.0000
   136 H67       6.7875   -4.8962   -5.4327   H         1 RES1   0.0000
   137 H68       4.8055   -4.0174   -6.0914   H         1 RES1   0.0000
   138 H69       5.3259   -2.7342   -5.0144   H         1 RES1   0.0000
   139 H70       3.8345   -3.6436   -3.2261   H         1 RES1   0.0000
   140 H71       3.3866   -4.9724   -4.2987   H         1 RES1   0.0000
   141 H72       2.6019   -3.2367   -5.9743   H         1 RES1   0.0000
   142 H73       2.9223   -2.0034   -4.7791   H         1 RES1   0.0000
   143 H74       0.9183   -4.3124   -4.5744   H         1 RES1   0.0000
   144 H75       0.5273   -2.6614   -5.0435   H         1 RES1   0.0000
   145 H76      -0.2551   -4.5166   -2.1399   H         1 RES1   0.0000
   146 H77       0.9159   -3.7193   -1.0861   H         1 RES1   0.0000
   147 H78       1.4876   -4.8534   -2.3304   H         1 RES1   0.0000
   148 H79       0.3426   -0.4459   -4.2532   H         1 RES1   0.0000
   149 H80       1.9853   -0.5804   -3.6112   H         1 RES1   0.0000
   150 H81       0.6455    2.4266   -3.3674   H         1 RES1   0.0000
   151 H82       2.2108    1.5977   -3.4553   H         1 RES1   0.0000
   152 H83       3.3072    4.2005   -3.3712   H         1 RES1   0.0000
   153 H84       2.8402    5.4778   -2.2545   H         1 RES1   0.0000
   154 H85       0.3726    4.5514   -2.7635   H         1 RES1   0.0000
   155 H86       1.1608    4.1078   -4.2822   H         1 RES1   0.0000
   156 H87       0.0807    6.1758   -4.5617   H         1 RES1   0.0000
   157 H88       1.8117    6.3936   -4.7231   H         1 RES1   0.0000
   158 H89       1.0934    8.2850   -3.6170   H         1 RES1   0.0000
   159 H90       1.7560    7.3186   -2.3016   H         1 RES1   0.0000
   160 H91      -0.2292    8.2781   -1.5139   H         1 RES1   0.0000
   161 H92      -0.5977    6.5809   -1.7564   H         1 RES1   0.0000
   162 H93      -1.6394    7.2718   -4.0213   H         1 RES1   0.0000
   163 H94      -1.3755    8.9356   -3.5098   H         1 RES1   0.0000
   164 H95      -3.1392    6.8439   -2.1456   H         1 RES1   0.0000
   165 H96      -3.6586    8.2508   -3.0667   H         1 RES1   0.0000
   166 H97      -2.2243    8.3170   -0.3684   H         1 RES1   0.0000
   167 H98      -3.8956    8.7460   -0.6984   H         1 RES1   0.0000
   168 H99      -2.5939    9.7393   -1.3488   H         1 RES1   0.0000
   169 H100      3.9398    4.8155   -0.7105   H         1 RES1   0.0000
   170 H101      4.3101    3.0927   -0.7453   H         1 RES1   0.0000
   171 H102      2.4299    2.9133    1.0988   H         1 RES1   0.0000
   172 H103      2.7379    4.6357    1.3039   H         1 RES1   0.0000
   173 H104      5.2058    4.1296    1.5094   H         1 RES1   0.0000
   174 H105      4.8171    2.4160    1.4247   H         1 RES1   0.0000
   175 H106      3.2363    2.8527    3.4351   H         1 RES1   0.0000
   176 H107      4.0094    4.4181    3.5681   H         1 RES1   0.0000
   177 H108      5.9703    3.5485    4.4473   H         1 RES1   0.0000
   178 H109      5.9075    2.1216    3.4311   H         1 RES1   0.0000
   179 H110      4.0860    1.1853    4.9079   H         1 RES1   0.0000
   180 H111      4.1966    2.6361    5.8991   H         1 RES1   0.0000
   181 H112      5.4335    0.9623    7.0298   H         1 RES1   0.0000
   182 H113      6.6210    2.0650    6.3422   H         1 RES1   0.0000
   183 H114      5.8374   -0.6568    5.1785   H         1 RES1   0.0000
   184 H115      7.3164   -0.2838    6.0538   H         1 RES1   0.0000
   185 H116      7.0404    0.4443    4.4779   H         1 RES1   0.0000
   186 C59      -6.1267    3.7872    6.4617   C.3       1 RES1   0.0000
   187 C60      -6.1923    4.3345    5.0417   C.3       1 RES1   0.0000
   188 C61      -7.6197    4.4381    4.5019   C.3       1 RES1   0.0000
   189 C62      -8.3421    3.1281    4.1749   C.3       1 RES1   0.0000
   190 C63      -7.9808    2.5533    2.7998   C.3       1 RES1   0.0000
   191 C64      -6.8380    1.5372    2.8343   C.3       1 RES1   0.0000
   192 C65      -6.5196    1.0058    1.4351   C.3       1 RES1   0.0000
   193 C66      -5.8631   -0.3768    1.4516   C.3       1 RES1   0.0000
   194 N5       -4.4844   -0.3823    1.9226   N.am      1 RES1   0.0000
   195 C67      -4.3144   -0.5390    3.3534   C.3       1 RES1   0.0000
   196 C68      -3.4189   -0.2408    1.1397   C.2       1 RES1   0.0000
   197 O7       -2.2494   -0.1430    1.5594   O.2       1 RES1   0.0000
   198 C69      -3.6873   -0.2563   -0.3626   C.3       1 RES1   0.0000
   199 O8       -2.4724   -0.3138   -1.1104   O.3       1 RES1   0.0000
   200 C70      -2.3553    0.7053   -2.0839   C.3       1 RES1   0.0000
   201 C71      -1.7832    1.9501   -1.3778   C.2       1 RES1   0.0000
   202 O9       -1.2799    1.7330   -0.2549   O.2       1 RES1   0.0000
   203 N6       -1.9237    3.1884   -1.8329   N.am      1 RES1   0.0000
   204 C72      -2.3179    3.6002   -3.1883   C.3       1 RES1   0.0000
   205 C73      -2.0040    2.5942   -4.3045   C.3       1 RES1   0.0000
   206 C74      -1.9277    3.1516   -5.7455   C.3       1 RES1   0.0000
   207 C75      -0.5350    3.3650   -6.3553   C.3       1 RES1   0.0000
   208 C76       0.4265    2.1650   -6.3681   C.3       1 RES1   0.0000
   209 C77       0.2546    1.1996   -7.5454   C.3       1 RES1   0.0000
   210 C78       1.0469   -0.1035   -7.3806   C.3       1 RES1   0.0000
   211 C79       2.5384    0.0937   -7.1374   C.3       1 RES1   0.0000
   212 C80      -1.8441    4.2488   -0.8068   C.3       1 RES1   0.0000
   213 C81      -0.5009    4.4616   -0.0890   C.3       1 RES1   0.0000
   214 C82      -0.6866    5.4628    1.0732   C.3       1 RES1   0.0000
   215 C83       0.4222    6.5124    1.1791   C.3       1 RES1   0.0000
   216 C84       0.5962    7.0885    2.5864   C.3       1 RES1   0.0000
   217 C85       1.1289    6.0785    3.6128   C.3       1 RES1   0.0000
   218 C86       2.2909    6.6172    4.4553   C.3       1 RES1   0.0000
   219 C87       1.9222    7.7881    5.3597   C.3       1 RES1   0.0000
   220 H117     -5.1163    3.8631    6.8579   H         1 RES1   0.0000
   221 H118     -6.7802    4.3615    7.1121   H         1 RES1   0.0000
   222 H119     -6.4355    2.7456    6.5044   H         1 RES1   0.0000
   223 H120     -5.7780    5.3446    5.0384   H         1 RES1   0.0000
   224 H121     -5.5713    3.7266    4.3805   H         1 RES1   0.0000
   225 H122     -8.2100    4.9825    5.2411   H         1 RES1   0.0000
   226 H123     -7.6042    5.0430    3.5917   H         1 RES1   0.0000
   227 H124     -8.1801    2.3849    4.9578   H         1 RES1   0.0000
   228 H125     -9.4115    3.3468    4.1732   H         1 RES1   0.0000
   229 H126     -8.8594    2.0551    2.3844   H         1 RES1   0.0000
   230 H127     -7.7182    3.3735    2.1288   H         1 RES1   0.0000
   231 H128     -5.9485    1.9894    3.2747   H         1 RES1   0.0000
   232 H129     -7.1490    0.7060    3.4701   H         1 RES1   0.0000
   233 H130     -7.4539    0.9107    0.8830   H         1 RES1   0.0000
   234 H131     -5.9045    1.7215    0.8900   H         1 RES1   0.0000
   235 H132     -6.4487   -1.0025    2.1262   H         1 RES1   0.0000
   236 H133     -5.9281   -0.8313    0.4629   H         1 RES1   0.0000
   237 H134     -3.2780   -0.7881    3.5500   H         1 RES1   0.0000
   238 H135     -4.9515   -1.3514    3.7031   H         1 RES1   0.0000
   239 H136     -4.6027    0.3646    3.8904   H         1 RES1   0.0000
   240 H137     -4.2564   -1.1597   -0.6042   H         1 RES1   0.0000
   241 H138     -4.2919    0.6191   -0.6243   H         1 RES1   0.0000
   242 H139     -1.6805    0.3016   -2.8428   H         1 RES1   0.0000
   243 H140     -3.3283    0.9152   -2.5398   H         1 RES1   0.0000
   244 H141     -3.3849    3.8354   -3.2013   H         1 RES1   0.0000
   245 H142     -1.7846    4.5312   -3.3815   H         1 RES1   0.0000
   246 H143     -1.0676    2.0970   -4.0658   H         1 RES1   0.0000
   247 H144     -2.7739    1.8300   -4.3279   H         1 RES1   0.0000
   248 H145     -2.4603    2.4554   -6.3913   H         1 RES1   0.0000
   249 H146     -2.4573    4.1023   -5.7956   H         1 RES1   0.0000
   250 H147     -0.6894    3.6791   -7.3892   H         1 RES1   0.0000
   251 H148     -0.0392    4.1923   -5.8499   H         1 RES1   0.0000
   252 H149      1.4407    2.5718   -6.4099   H         1 RES1   0.0000
   253 H150      0.3385    1.5896   -5.4433   H         1 RES1   0.0000
   254 H151     -0.8001    0.9398   -7.6655   H         1 RES1   0.0000
   255 H152      0.5801    1.6954   -8.4615   H         1 RES1   0.0000
   256 H153      0.6232   -0.6942   -6.5614   H         1 RES1   0.0000
   257 H154      0.9183   -0.6839   -8.2943   H         1 RES1   0.0000
   258 H155      2.7366    0.5615   -6.1737   H         1 RES1   0.0000
   259 H156      3.0509   -0.8647   -7.1585   H         1 RES1   0.0000
   260 H157      2.9626    0.7193   -7.9158   H         1 RES1   0.0000
   261 H158     -2.1423    5.1841   -1.2744   H         1 RES1   0.0000
   262 H159     -2.5954    4.0070   -0.0506   H         1 RES1   0.0000
   263 H160     -0.1342    3.5125    0.3123   H         1 RES1   0.0000
   264 H161      0.2507    4.8377   -0.7861   H         1 RES1   0.0000
   265 H162     -1.6408    5.9769    0.9618   H         1 RES1   0.0000
   266 H163     -0.7309    4.9096    2.0054   H         1 RES1   0.0000
   267 H164      1.3651    6.0737    0.8502   H         1 RES1   0.0000
   268 H165      0.1994    7.3383    0.5068   H         1 RES1   0.0000
   269 H166      1.2940    7.9232    2.5155   H         1 RES1   0.0000
   270 H167     -0.3527    7.4979    2.9269   H         1 RES1   0.0000
   271 H168      0.3311    5.7626    4.2868   H         1 RES1   0.0000
   272 H169      1.4783    5.1839    3.0878   H         1 RES1   0.0000
   273 H170      2.6574    5.7993    5.0839   H         1 RES1   0.0000
   274 H171      3.1016    6.9237    3.7893   H         1 RES1   0.0000
   275 H172      1.1207    7.5142    6.0415   H         1 RES1   0.0000
   276 H173      2.7877    8.0774    5.9524   H         1 RES1   0.0000
   277 H174      1.6083    8.6532    4.7817   H         1 RES1   0.0000
@<TRIPOS>BOND
     1     1    13    1
     2     1    15    1
     3     1    18    1
     4     1   105    1
     5     1   107    1
     6     1   110    1
     7     1   197    1
     8     1   199    1
     9     1   202    1
    10     2     3    1
    11     2    36    1
    12     2    37    1
    13     2    38    1
    14     3     4    1
    15     3    39    1
    16     3    40    1
    17     4     5    1
    18     4    41    1
    19     4    42    1
    20     5     6    1
    21     5    43    1
    22     5    44    1
    23     6     7    1
    24     6    45    1
    25     6    46    1
    26     7     8    1
    27     7    47    1
    28     7    48    1
    29     8     9    1
    30     8    49    1
    31     8    50    1
    32     9    10    1
    33     9    51    1
    34     9    52    1
    35    10    11    1
    36    10    12    1
    37    11    53    1
    38    11    54    1
    39    11    55    1
    40    12    13    2
    41    12    14    1
    42    14    15    1
    43    14    56    1
    44    14    57    1
    45    15    16    1
    46    16    17    1
    47    16    58    1
    48    16    59    1
    49    17    18    2
    50    17    19    1
    51    19    20    1
    52    19    28    1
    53    20    21    1
    54    20    60    1
    55    20    61    1
    56    21    22    1
    57    21    62    1
    58    21    63    1
    59    22    23    1
    60    22    64    1
    61    22    65    1
    62    23    24    1
    63    23    66    1
    64    23    67    1
    65    24    25    1
    66    24    68    1
    67    24    69    1
    68    25    26    1
    69    25    70    1
    70    25    71    1
    71    26    27    1
    72    26    72    1
    73    26    73    1
    74    27    74    1
    75    27    75    1
    76    27    76    1
    77    28    29    1
    78    28    77    1
    79    28    78    1
    80    29    30    1
    81    29    79    1
    82    29    80    1
    83    30    31    1
    84    30    81    1
    85    30    82    1
    86    31    32    1
    87    31    83    1
    88    31    84    1
    89    32    33    1
    90    32    85    1
    91    32    86    1
    92    33    34    1
    93    33    87    1
    94    33    88    1
    95    34    35    1
    96    34    89    1
    97    34    90    1
    98    35    91    1
    99    35    92    1
   100    35    93    1
   101    94    95    1
   102    94   128    1
   103    94   129    1
   104    94   130    1
   105    95    96    1
   106    95   131    1
   107    95   132    1
   108    96    97    1
   109    96   133    1
   110    96   134    1
   111    97    98    1
   112    97   135    1
   113    97   136    1
   114    98    99    1
   115    98   137    1
   116    98   138    1
   117    99   100    1
   118    99   139    1
   119    99   140    1
   120   100   101    1
   121   100   141    1
   122   100   142    1
   123   101   102    1
   124   101   143    1
   125   101   144    1
   126   102   103    1
   127   102   104    1
   128   103   145    1
   129   103   146    1
   130   103   147    1
   131   104   105    2
   132   104   106    1
   133   106   107    1
   134   106   148    1
   135   106   149    1
   136   107   108    1
   137   108   109    1
   138   108   150    1
   139   108   151    1
   140   109   110    2
   141   109   111    1
   142   111   112    1
   143   111   120    1
   144   112   113    1
   145   112   152    1
   146   112   153    1
   147   113   114    1
   148   113   154    1
   149   113   155    1
   150   114   115    1
   151   114   156    1
   152   114   157    1
   153   115   116    1
   154   115   158    1
   155   115   159    1
   156   116   117    1
   157   116   160    1
   158   116   161    1
   159   117   118    1
   160   117   162    1
   161   117   163    1
   162   118   119    1
   163   118   164    1
   164   118   165    1
   165   119   166    1
   166   119   167    1
   167   119   168    1
   168   120   121    1
   169   120   169    1
   170   120   170    1
   171   121   122    1
   172   121   171    1
   173   121   172    1
   174   122   123    1
   175   122   173    1
   176   122   174    1
   177   123   124    1
   178   123   175    1
   179   123   176    1
   180   124   125    1
   181   124   177    1
   182   124   178    1
   183   125   126    1
   184   125   179    1
   185   125   180    1
   186   126   127    1
   187   126   181    1
   188   126   182    1
   189   127   183    1
   190   127   184    1
   191   127   185    1
   192   186   187    1
   193   186   220    1
   194   186   221    1
   195   186   222    1
   196   187   188    1
   197   187   223    1
   198   187   224    1
   199   188   189    1
   200   188   225    1
   201   188   226    1
   202   189   190    1
   203   189   227    1
   204   189   228    1
   205   190   191    1
   206   190   229    1
   207   190   230    1
   208   191   192    1
   209   191   231    1
   210   191   232    1
   211   192   193    1
   212   192   233    1
   213   192   234    1
   214   193   194    1
   215   193   235    1
   216   193   236    1
   217   194   195    1
   218   194   196    1
   219   195   237    1
   220   195   238    1
   221   195   239    1
   222   196   197    2
   223   196   198    1
   224   198   199    1
   225   198   240    1
   226   198   241    1
   227   199   200    1
   228   200   201    1
   229   200   242    1
   230   200   243    1
   231   201   202    2
   232   201   203    1
   233   203   204    1
   234   203   212    1
   235   204   205    1
   236   204   244    1
   237   204   245    1
   238   205   206    1
   239   205   246    1
   240   205   247    1
   241   206   207    1
   242   206   248    1
   243   206   249    1
   244   207   208    1
   245   207   250    1
   246   207   251    1
   247   208   209    1
   248   208   252    1
   249   208   253    1
   250   209   210    1
   251   209   254    1
   252   209   255    1
   253   210   211    1
   254   210   256    1
   255   210   257    1
   256   211   258    1
   257   211   259    1
   258   211   260    1
   259   212   213    1
   260   212   261    1
   261   212   262    1
   262   213   214    1
   263   213   263    1
   264   213   264    1
   265   214   215    1
   266   214   265    1
   267   214   266    1
   268   215   216    1
   269   215   267    1
   270   215   268    1
   271   216   217    1
   272   216   269    1
   273   216   270    1
   274   217   218    1
   275   217   271    1
   276   217   272    1
   277   218   219    1
   278   218   273    1
   279   218   274    1
   280   219   275    1
   281   219   276    1
   282   219   277    1
@<TRIPOS>SUBSTRUCTURE
     1 RES1      277 GROUP             0 ****  ****    0  
