@<TRIPOS>MOLECULE
am_c3_9H2O_c0_0_nunpairedes_0_charge_3 Charge: 3 Unpaired_Electrons: 2 XTB_Unpaired_Electrons: 0 XTB_Charge: 3
   214   219     1     0     0
SMALL
NoCharges
****
Generated from Architector

@<TRIPOS>ATOM
     1 Pr1      -0.0988   -0.0065   -0.1837   Pr        1 RES1   0.0000
     2 C1        1.3616   -3.2137    4.7657   C.3       1 RES1   0.0000
     3 C2        0.3124   -3.7771    5.7147   C.3       1 RES1   0.0000
     4 C3       -1.0607   -3.9619    5.0653   C.3       1 RES1   0.0000
     5 C4       -1.7973   -2.6439    4.8182   C.3       1 RES1   0.0000
     6 C5       -3.2896   -2.8462    4.5555   C.3       1 RES1   0.0000
     7 C6       -3.5892   -3.4115    3.1631   C.3       1 RES1   0.0000
     8 C7       -4.8621   -2.8456    2.5197   C.3       1 RES1   0.0000
     9 C8       -4.6649   -1.5874    1.6581   C.3       1 RES1   0.0000
    10 N1       -4.0239   -0.4559    2.3247   N.am      1 RES1   0.0000
    11 C9       -4.7905    0.1873    3.3747   C.3       1 RES1   0.0000
    12 C10      -2.8881    0.0464    1.8638   C.2       1 RES1   0.0000
    13 O1       -2.2261   -0.4804    0.9433   O.2       1 RES1   0.0000
    14 C11      -2.3168    1.3304    2.4748   C.3       1 RES1   0.0000
    15 O2       -1.4756    1.9430    1.5055   O.3       1 RES1   0.0000
    16 C12      -2.0428    3.0568    0.8224   C.3       1 RES1   0.0000
    17 C13      -1.3427    3.1238   -0.5379   C.2       1 RES1   0.0000
    18 O3       -0.8914    2.0639   -1.0170   O.2       1 RES1   0.0000
    19 N2       -1.2621    4.2922   -1.1554   N.am      1 RES1   0.0000
    20 C14      -0.5858    4.3977   -2.4312   C.3       1 RES1   0.0000
    21 C15      -1.7614    5.5573   -0.6389   C.3       1 RES1   0.0000
    22 C16      -0.7055    6.2643    0.2261   C.3       1 RES1   0.0000
    23 C17      -1.3334    7.2444    1.2202   C.3       1 RES1   0.0000
    24 C18      -2.0341    6.5426    2.3818   C.3       1 RES1   0.0000
    25 C19      -2.6997    7.5353    3.3333   C.3       1 RES1   0.0000
    26 C20      -3.3519    6.8630    4.5435   C.3       1 RES1   0.0000
    27 C21      -4.5325    5.9598    4.1913   C.3       1 RES1   0.0000
    28 C22      -5.2313    5.4423    5.4424   C.3       1 RES1   0.0000
    29 H1        2.3138   -3.1303    5.2781   H         1 RES1   0.0000
    30 H2        1.0791   -2.2240    4.4057   H         1 RES1   0.0000
    31 H3        1.4950   -3.8809    3.9176   H         1 RES1   0.0000
    32 H4        0.2191   -3.1243    6.5842   H         1 RES1   0.0000
    33 H5        0.6660   -4.7429    6.0769   H         1 RES1   0.0000
    34 H6       -1.6648   -4.5683    5.7411   H         1 RES1   0.0000
    35 H7       -0.9527   -4.5183    4.1300   H         1 RES1   0.0000
    36 H8       -1.3528   -2.1002    3.9748   H         1 RES1   0.0000
    37 H9       -1.6812   -2.0204    5.7068   H         1 RES1   0.0000
    38 H10      -3.7922   -1.8905    4.6773   H         1 RES1   0.0000
    39 H11      -3.6875   -3.5151    5.3177   H         1 RES1   0.0000
    40 H12      -3.6751   -4.4937    3.2303   H         1 RES1   0.0000
    41 H13      -2.7421   -3.1991    2.5141   H         1 RES1   0.0000
    42 H14      -5.6023   -2.6569    3.2965   H         1 RES1   0.0000
    43 H15      -5.3051   -3.5892    1.8541   H         1 RES1   0.0000
    44 H16      -5.6453   -1.2389    1.3144   H         1 RES1   0.0000
    45 H17      -4.0614   -1.8211    0.7804   H         1 RES1   0.0000
    46 H18      -5.6077   -0.4697    3.6653   H         1 RES1   0.0000
    47 H19      -5.2325    1.1253    3.0319   H         1 RES1   0.0000
    48 H20      -4.1784    0.3903    4.2537   H         1 RES1   0.0000
    49 H21      -1.6614    1.0357    3.3046   H         1 RES1   0.0000
    50 H22      -3.0746    2.0262    2.8455   H         1 RES1   0.0000
    51 H23      -1.8846    3.9566    1.4308   H         1 RES1   0.0000
    52 H24      -3.1200    2.9264    0.6346   H         1 RES1   0.0000
    53 H25      -0.2031    3.4235   -2.7223   H         1 RES1   0.0000
    54 H26       0.2224    5.1249   -2.3538   H         1 RES1   0.0000
    55 H27      -1.3022    4.7389   -3.1781   H         1 RES1   0.0000
    56 H28      -2.6833    5.4025   -0.0795   H         1 RES1   0.0000
    57 H29      -2.0107    6.1762   -1.5025   H         1 RES1   0.0000
    58 H30      -0.0037    6.7976   -0.4179   H         1 RES1   0.0000
    59 H31      -0.1450    5.5017    0.7748   H         1 RES1   0.0000
    60 H32      -2.0440    7.8831    0.6955   H         1 RES1   0.0000
    61 H33      -0.5518    7.8908    1.6206   H         1 RES1   0.0000
    62 H34      -1.3079    5.9449    2.9421   H         1 RES1   0.0000
    63 H35      -2.8043    5.8720    1.9967   H         1 RES1   0.0000
    64 H36      -3.4554    8.1010    2.7853   H         1 RES1   0.0000
    65 H37      -1.9472    8.2429    3.6864   H         1 RES1   0.0000
    66 H38      -3.7085    7.6471    5.2120   H         1 RES1   0.0000
    67 H39      -2.6003    6.2867    5.0902   H         1 RES1   0.0000
    68 H40      -4.1936    5.1083    3.5935   H         1 RES1   0.0000
    69 H41      -5.2481    6.5229    3.5920   H         1 RES1   0.0000
    70 H42      -4.5421    4.8801    6.0704   H         1 RES1   0.0000
    71 H43      -6.0671    4.7983    5.1787   H         1 RES1   0.0000
    72 H44      -5.6186    6.2710    6.0275   H         1 RES1   0.0000
    73 C23      -4.0979    1.0187   -2.2710   C.3       1 RES1   0.0000
    74 C24      -4.3489    1.2637   -3.7591   C.3       1 RES1   0.0000
    75 C25      -3.1294    0.9644   -4.6331   C.3       1 RES1   0.0000
    76 C26      -1.9174    1.8018   -4.2368   C.3       1 RES1   0.0000
    77 C27      -0.7256    1.6532   -5.1789   C.3       1 RES1   0.0000
    78 C28      -0.1131    0.2547   -5.1127   C.3       1 RES1   0.0000
    79 C29       1.3259    0.2083   -5.6487   C.3       1 RES1   0.0000
    80 C30       2.3578    0.0475   -4.5326   C.3       1 RES1   0.0000
    81 N3        2.4331    1.1895   -3.6186   N.am      1 RES1   0.0000
    82 C31       3.1285    2.3658   -4.0925   C.3       1 RES1   0.0000
    83 C32       1.9434    1.0789   -2.3901   C.2       1 RES1   0.0000
    84 O4        1.2243    0.1303   -2.0313   O.2       1 RES1   0.0000
    85 C33       2.3598    2.1217   -1.3416   C.3       1 RES1   0.0000
    86 O5        1.6267    1.8323   -0.1619   O.3       1 RES1   0.0000
    87 C34       2.1387    2.3693    1.0425   C.3       1 RES1   0.0000
    88 C35       1.4576    1.6273    2.1994   C.2       1 RES1   0.0000
    89 O6        0.7278    0.6436    1.9669   O.2       1 RES1   0.0000
    90 N4        1.6800    2.0472    3.4362   N.am      1 RES1   0.0000
    91 C36       1.0625    1.3068    4.5226   C.3       1 RES1   0.0000
    92 C37       2.4365    3.2253    3.8240   C.3       1 RES1   0.0000
    93 C38       1.5276    4.3330    4.3794   C.3       1 RES1   0.0000
    94 C39       2.2235    5.6972    4.3418   C.3       1 RES1   0.0000
    95 C40       2.2994    6.2511    2.9220   C.3       1 RES1   0.0000
    96 C41       2.9948    7.6082    2.8424   C.3       1 RES1   0.0000
    97 C42       2.9634    8.1927    1.4280   C.3       1 RES1   0.0000
    98 C43       3.7283    7.3584    0.4024   C.3       1 RES1   0.0000
    99 C44       3.7077    8.0020   -0.9778   C.3       1 RES1   0.0000
   100 H45      -5.0408    1.0219   -1.7286   H         1 RES1   0.0000
   101 H46      -3.4623    1.7961   -1.8495   H         1 RES1   0.0000
   102 H47      -3.6050    0.0585   -2.1116   H         1 RES1   0.0000
   103 H48      -4.6550    2.3016   -3.9051   H         1 RES1   0.0000
   104 H49      -5.1800    0.6390   -4.0904   H         1 RES1   0.0000
   105 H50      -3.3840    1.1739   -5.6731   H         1 RES1   0.0000
   106 H51      -2.8834   -0.0957   -4.5578   H         1 RES1   0.0000
   107 H52      -1.5961    1.5142   -3.2290   H         1 RES1   0.0000
   108 H53      -2.2310    2.8470   -4.2240   H         1 RES1   0.0000
   109 H54       0.0323    2.3908   -4.9007   H         1 RES1   0.0000
   110 H55      -1.0336    1.8805   -6.1993   H         1 RES1   0.0000
   111 H56      -0.7282   -0.4356   -5.6867   H         1 RES1   0.0000
   112 H57      -0.1192   -0.0799   -4.0695   H         1 RES1   0.0000
   113 H58       1.5404    1.1060   -6.2312   H         1 RES1   0.0000
   114 H59       1.4618   -0.6425   -6.3173   H         1 RES1   0.0000
   115 H60       3.3577   -0.0871   -4.9576   H         1 RES1   0.0000
   116 H61       2.1119   -0.8349   -3.9382   H         1 RES1   0.0000
   117 H62       3.3214    2.2540   -5.1589   H         1 RES1   0.0000
   118 H63       4.0861    2.5214   -3.5895   H         1 RES1   0.0000
   119 H64       2.5214    3.2638   -3.9581   H         1 RES1   0.0000
   120 H65       2.1665    3.1518   -1.6689   H         1 RES1   0.0000
   121 H66       3.4398    1.9968   -1.1789   H         1 RES1   0.0000
   122 H67       1.9216    3.4459    1.1080   H         1 RES1   0.0000
   123 H68       3.2254    2.2237    1.1070   H         1 RES1   0.0000
   124 H69       0.0382    1.6398    4.6811   H         1 RES1   0.0000
   125 H70       1.6388    1.4590    5.4320   H         1 RES1   0.0000
   126 H71       1.0437    0.2453    4.2729   H         1 RES1   0.0000
   127 H72       2.9912    3.6058    2.9710   H         1 RES1   0.0000
   128 H73       3.1648    2.9237    4.5809   H         1 RES1   0.0000
   129 H74       1.2398    4.0906    5.4028   H         1 RES1   0.0000
   130 H75       0.6169    4.3866    3.7742   H         1 RES1   0.0000
   131 H76       3.2249    5.6105    4.7628   H         1 RES1   0.0000
   132 H77       1.6683    6.3940    4.9688   H         1 RES1   0.0000
   133 H78       1.2869    6.3541    2.5259   H         1 RES1   0.0000
   134 H79       2.8432    5.5477    2.2878   H         1 RES1   0.0000
   135 H80       4.0302    7.5062    3.1720   H         1 RES1   0.0000
   136 H81       2.4997    8.3037    3.5229   H         1 RES1   0.0000
   137 H82       3.3984    9.1922    1.4581   H         1 RES1   0.0000
   138 H83       1.9240    8.3004    1.1061   H         1 RES1   0.0000
   139 H84       3.2934    6.3571    0.3325   H         1 RES1   0.0000
   140 H85       4.7624    7.2502    0.7294   H         1 RES1   0.0000
   141 H86       2.6872    8.1250   -1.3373   H         1 RES1   0.0000
   142 H87       4.2579    7.3948   -1.6930   H         1 RES1   0.0000
   143 H88       4.1713    8.9830   -0.9453   H         1 RES1   0.0000
   144 C45      -1.7143   -7.2248    1.2214   C.3       1 RES1   0.0000
   145 C46      -0.5318   -6.6461    0.4491   C.3       1 RES1   0.0000
   146 C47      -0.8555   -6.4502   -1.0340   C.3       1 RES1   0.0000
   147 C48       0.1322   -5.5552   -1.7939   C.3       1 RES1   0.0000
   148 C49      -0.0277   -5.6701   -3.3142   C.3       1 RES1   0.0000
   149 C50      -1.3862   -5.1746   -3.8196   C.3       1 RES1   0.0000
   150 C51      -1.4788   -3.6393   -3.9150   C.3       1 RES1   0.0000
   151 C52      -2.7650   -3.0556   -3.3104   C.3       1 RES1   0.0000
   152 N5       -2.7350   -3.2142   -1.8577   N.am      1 RES1   0.0000
   153 C53      -3.7509   -4.0675   -1.2795   C.3       1 RES1   0.0000
   154 C54      -1.8573   -2.4920   -1.1681   C.2       1 RES1   0.0000
   155 O7       -1.3216   -1.4601   -1.6200   O.2       1 RES1   0.0000
   156 C55      -1.3647   -3.0156    0.1911   C.3       1 RES1   0.0000
   157 O8       -0.0868   -2.3961    0.3408   O.3       1 RES1   0.0000
   158 C56       0.8034   -2.9888    1.2787   C.3       1 RES1   0.0000
   159 C57       2.1418   -2.2873    0.9930   C.2       1 RES1   0.0000
   160 O9        2.0783   -1.1668    0.4490   O.2       1 RES1   0.0000
   161 N6        3.2898   -2.8654    1.3133   N.am      1 RES1   0.0000
   162 C58       3.4893   -4.2014    1.8328   C.3       1 RES1   0.0000
   163 C59       4.5385   -2.1431    1.0546   C.3       1 RES1   0.0000
   164 C60       4.6652   -0.8795    1.9075   C.3       1 RES1   0.0000
   165 C61       4.7729   -1.1579    3.4086   C.3       1 RES1   0.0000
   166 C62       4.6292    0.1446    4.1923   C.3       1 RES1   0.0000
   167 C63       4.8008   -0.0015    5.7039   C.3       1 RES1   0.0000
   168 C64       3.8039   -0.9828    6.3215   C.3       1 RES1   0.0000
   169 C65       3.6199   -0.8093    7.8291   C.3       1 RES1   0.0000
   170 C66       4.9005   -1.0558    8.6141   C.3       1 RES1   0.0000
   171 H89      -1.4712   -7.3165    2.2776   H         1 RES1   0.0000
   172 H90      -2.5981   -6.5922    1.1255   H         1 RES1   0.0000
   173 H91      -1.9619   -8.2141    0.8476   H         1 RES1   0.0000
   174 H92      -0.2505   -5.6905    0.9037   H         1 RES1   0.0000
   175 H93       0.3223   -7.3145    0.5549   H         1 RES1   0.0000
   176 H94      -0.8703   -7.4305   -1.5107   H         1 RES1   0.0000
   177 H95      -1.8647   -6.0432   -1.1120   H         1 RES1   0.0000
   178 H96       0.0104   -4.5042   -1.5134   H         1 RES1   0.0000
   179 H97       1.1470   -5.8554   -1.5227   H         1 RES1   0.0000
   180 H98       0.7714   -5.1130   -3.8085   H         1 RES1   0.0000
   181 H99       0.0967   -6.7157   -3.5919   H         1 RES1   0.0000
   182 H100     -1.5743   -5.5986   -4.8041   H         1 RES1   0.0000
   183 H101     -2.1610   -5.5640   -3.1612   H         1 RES1   0.0000
   184 H102     -0.6270   -3.1755   -3.4088   H         1 RES1   0.0000
   185 H103     -1.4381   -3.3321   -4.9604   H         1 RES1   0.0000
   186 H104     -2.8469   -1.9933   -3.5483   H         1 RES1   0.0000
   187 H105     -3.6441   -3.5659   -3.6998   H         1 RES1   0.0000
   188 H106     -3.8384   -4.9992   -1.8383   H         1 RES1   0.0000
   189 H107     -3.5616   -4.2938   -0.2328   H         1 RES1   0.0000
   190 H108     -4.7172   -3.5561   -1.3497   H         1 RES1   0.0000
   191 H109     -2.0093   -2.7092    1.0260   H         1 RES1   0.0000
   192 H110     -1.2818   -4.1065    0.1674   H         1 RES1   0.0000
   193 H111      0.4700   -2.7725    2.3084   H         1 RES1   0.0000
   194 H112      0.8577   -4.0732    1.1355   H         1 RES1   0.0000
   195 H113      2.5744   -4.7725    1.9471   H         1 RES1   0.0000
   196 H114      4.1428   -4.7480    1.1484   H         1 RES1   0.0000
   197 H115      3.9809   -4.1496    2.8065   H         1 RES1   0.0000
   198 H116      5.3680   -2.8158    1.2717   H         1 RES1   0.0000
   199 H117      4.5655   -1.8811   -0.0065   H         1 RES1   0.0000
   200 H118      5.5524   -0.3368    1.5762   H         1 RES1   0.0000
   201 H119      3.7927   -0.2487    1.7175   H         1 RES1   0.0000
   202 H120      3.9844   -1.8502    3.7052   H         1 RES1   0.0000
   203 H121      5.7363   -1.6149    3.6327   H         1 RES1   0.0000
   204 H122      5.3670    0.8577    3.8201   H         1 RES1   0.0000
   205 H123      3.6379    0.5501    3.9824   H         1 RES1   0.0000
   206 H124      5.8174   -0.3197    5.9274   H         1 RES1   0.0000
   207 H125      4.6622    0.9816    6.1582   H         1 RES1   0.0000
   208 H126      2.8297   -0.8511    5.8422   H         1 RES1   0.0000
   209 H127      4.1408   -2.0033    6.1310   H         1 RES1   0.0000
   210 H128      3.2519    0.1973    8.0398   H         1 RES1   0.0000
   211 H129      2.8569   -1.5149    8.1657   H         1 RES1   0.0000
   212 H130      5.6389   -0.2871    8.4033   H         1 RES1   0.0000
   213 H131      4.6927   -1.0444    9.6805   H         1 RES1   0.0000
   214 H132      5.3229   -2.0249    8.3585   H         1 RES1   0.0000
@<TRIPOS>BOND
     1     1    13    1
     2     1    15    1
     3     1    18    1
     4     1    84    1
     5     1    86    1
     6     1    89    1
     7     1   155    1
     8     1   157    1
     9     1   160    1
    10     2     3    1
    11     2    29    1
    12     2    30    1
    13     2    31    1
    14     3     4    1
    15     3    32    1
    16     3    33    1
    17     4     5    1
    18     4    34    1
    19     4    35    1
    20     5     6    1
    21     5    36    1
    22     5    37    1
    23     6     7    1
    24     6    38    1
    25     6    39    1
    26     7     8    1
    27     7    40    1
    28     7    41    1
    29     8     9    1
    30     8    42    1
    31     8    43    1
    32     9    10    1
    33     9    44    1
    34     9    45    1
    35    10    11    1
    36    10    12    1
    37    11    46    1
    38    11    47    1
    39    11    48    1
    40    12    13    2
    41    12    14    1
    42    14    15    1
    43    14    49    1
    44    14    50    1
    45    15    16    1
    46    16    17    1
    47    16    51    1
    48    16    52    1
    49    17    18    2
    50    17    19    1
    51    19    20    1
    52    19    21    1
    53    20    53    1
    54    20    54    1
    55    20    55    1
    56    21    22    1
    57    21    56    1
    58    21    57    1
    59    22    23    1
    60    22    58    1
    61    22    59    1
    62    23    24    1
    63    23    60    1
    64    23    61    1
    65    24    25    1
    66    24    62    1
    67    24    63    1
    68    25    26    1
    69    25    64    1
    70    25    65    1
    71    26    27    1
    72    26    66    1
    73    26    67    1
    74    27    28    1
    75    27    68    1
    76    27    69    1
    77    28    70    1
    78    28    71    1
    79    28    72    1
    80    73    74    1
    81    73   100    1
    82    73   101    1
    83    73   102    1
    84    74    75    1
    85    74   103    1
    86    74   104    1
    87    75    76    1
    88    75   105    1
    89    75   106    1
    90    76    77    1
    91    76   107    1
    92    76   108    1
    93    77    78    1
    94    77   109    1
    95    77   110    1
    96    78    79    1
    97    78   111    1
    98    78   112    1
    99    79    80    1
   100    79   113    1
   101    79   114    1
   102    80    81    1
   103    80   115    1
   104    80   116    1
   105    81    82    1
   106    81    83    1
   107    82   117    1
   108    82   118    1
   109    82   119    1
   110    83    84    2
   111    83    85    1
   112    85    86    1
   113    85   120    1
   114    85   121    1
   115    86    87    1
   116    87    88    1
   117    87   122    1
   118    87   123    1
   119    88    89    2
   120    88    90    1
   121    90    91    1
   122    90    92    1
   123    91   124    1
   124    91   125    1
   125    91   126    1
   126    92    93    1
   127    92   127    1
   128    92   128    1
   129    93    94    1
   130    93   129    1
   131    93   130    1
   132    94    95    1
   133    94   131    1
   134    94   132    1
   135    95    96    1
   136    95   133    1
   137    95   134    1
   138    96    97    1
   139    96   135    1
   140    96   136    1
   141    97    98    1
   142    97   137    1
   143    97   138    1
   144    98    99    1
   145    98   139    1
   146    98   140    1
   147    99   141    1
   148    99   142    1
   149    99   143    1
   150   144   145    1
   151   144   171    1
   152   144   172    1
   153   144   173    1
   154   145   146    1
   155   145   174    1
   156   145   175    1
   157   146   147    1
   158   146   176    1
   159   146   177    1
   160   147   148    1
   161   147   178    1
   162   147   179    1
   163   148   149    1
   164   148   180    1
   165   148   181    1
   166   149   150    1
   167   149   182    1
   168   149   183    1
   169   150   151    1
   170   150   184    1
   171   150   185    1
   172   151   152    1
   173   151   186    1
   174   151   187    1
   175   152   153    1
   176   152   154    1
   177   153   188    1
   178   153   189    1
   179   153   190    1
   180   154   155    2
   181   154   156    1
   182   156   157    1
   183   156   191    1
   184   156   192    1
   185   157   158    1
   186   158   159    1
   187   158   193    1
   188   158   194    1
   189   159   160    2
   190   159   161    1
   191   161   162    1
   192   161   163    1
   193   162   195    1
   194   162   196    1
   195   162   197    1
   196   163   164    1
   197   163   198    1
   198   163   199    1
   199   164   165    1
   200   164   200    1
   201   164   201    1
   202   165   166    1
   203   165   202    1
   204   165   203    1
   205   166   167    1
   206   166   204    1
   207   166   205    1
   208   167   168    1
   209   167   206    1
   210   167   207    1
   211   168   169    1
   212   168   208    1
   213   168   209    1
   214   169   170    1
   215   169   210    1
   216   169   211    1
   217   170   212    1
   218   170   213    1
   219   170   214    1
@<TRIPOS>SUBSTRUCTURE
     1 RES1      214 GROUP             0 ****  ****    0  
