@<TRIPOS>MOLECULE
tri_tri_mer_capped_0_nunpairedes_0_charge_3 Charge: 3 Unpaired_Electrons: 2 XTB_Unpaired_Electrons: 0 XTB_Charge: 3
    98   108     1     0     0
SMALL
NoCharges
****
Generated from Architector

@<TRIPOS>ATOM
     1 Pr1      -0.0677   -0.3552   -0.0448   Pr        1 RES1   0.0000
     2 C1        0.7967   -5.8302    1.7655   C.3       1 RES1   0.0000
     3 C2        2.0012   -5.0433    2.2634   C.3       1 RES1   0.0000
     4 C3        1.6875   -3.9149    3.2415   C.3       1 RES1   0.0000
     5 C4        0.7964   -2.7761    2.7138   C.3       1 RES1   0.0000
     6 C5       -0.6688   -3.0406    3.1027   C.3       1 RES1   0.0000
     7 C6       -1.5973   -2.1226    2.3921   C.ar      1 RES1   0.0000
     8 N1       -2.2171   -2.6632    1.3472   N.ar      1 RES1   0.0000
     9 N2       -2.9771   -1.9686    0.5716   N.ar      1 RES1   0.0000
    10 C7       -2.9694   -0.6488    0.7116   C.ar      1 RES1   0.0000
    11 C8       -3.3039    0.0706   -0.5434   C.ar      1 RES1   0.0000
    12 C9       -4.4365    0.7459   -0.9497   C.ar      1 RES1   0.0000
    13 C10      -4.4591    1.2022   -2.2710   C.ar      1 RES1   0.0000
    14 C11      -3.4127    0.9043   -3.1376   C.ar      1 RES1   0.0000
    15 C12      -2.3200    0.1881   -2.6513   C.ar      1 RES1   0.0000
    16 C13      -1.1230   -0.3021   -3.3851   C.ar      1 RES1   0.0000
    17 C14      -1.0621   -0.7757   -4.6906   C.ar      1 RES1   0.0000
    18 C15       0.1285   -1.3490   -5.1380   C.ar      1 RES1   0.0000
    19 C16       1.2597   -1.3540   -4.3279   C.ar      1 RES1   0.0000
    20 C17       1.1265   -0.8118   -3.0536   C.ar      1 RES1   0.0000
    21 C18       2.1782   -0.5053   -2.0425   C.ar      1 RES1   0.0000
    22 N3        2.6990    0.6956   -2.1385   N.ar      1 RES1   0.0000
    23 N4        3.3863    1.1550   -1.1355   N.ar      1 RES1   0.0000
    24 C19       3.9105    0.3128   -0.2695   C.ar      1 RES1   0.0000
    25 C20       4.8786    0.8455    0.7347   C.3       1 RES1   0.0000
    26 C21       4.8212    2.3700    0.8772   C.3       1 RES1   0.0000
    27 C22       3.5942    2.8987    1.6303   C.3       1 RES1   0.0000
    28 C23       3.8536    3.1109    3.1239   C.3       1 RES1   0.0000
    29 C24       4.0918    1.8333    3.9167   C.3       1 RES1   0.0000
    30 C25       3.4785   -1.0552   -0.2835   C.ar      1 RES1   0.0000
    31 C26       4.2629   -2.1563    0.2887   C.3       1 RES1   0.0000
    32 C27       4.9595   -2.8589   -0.9257   C.3       1 RES1   0.0000
    33 C28       5.8279   -1.9263   -1.7689   C.3       1 RES1   0.0000
    34 C29       6.3191   -2.6188   -3.0401   C.3       1 RES1   0.0000
    35 C30       7.0891   -1.6542   -3.9329   C.3       1 RES1   0.0000
    36 N5        2.3438   -1.3313   -0.9690   N.ar      1 RES1   0.0000
    37 N6       -0.0413   -0.3599   -2.5889   N.ar      1 RES1   0.0000
    38 N7       -2.2597   -0.1551   -1.3535   N.ar      1 RES1   0.0000
    39 N8       -2.3251    0.0030    1.6792   N.ar      1 RES1   0.0000
    40 C31      -1.7495   -0.7269    2.6430   C.ar      1 RES1   0.0000
    41 C32      -1.2078   -0.0047    3.8256   C.3       1 RES1   0.0000
    42 C33       0.1145    0.7448    3.5250   C.3       1 RES1   0.0000
    43 C34      -0.0445    2.2570    3.3969   C.3       1 RES1   0.0000
    44 C35      -0.7081    2.7031    2.0889   C.3       1 RES1   0.0000
    45 C36      -2.1770    3.0883    2.2162   C.3       1 RES1   0.0000
    46 H1        1.1375   -6.6579    1.1496   H         1 RES1   0.0000
    47 H2        0.1253   -5.2242    1.1592   H         1 RES1   0.0000
    48 H3        0.2397   -6.2581    2.5946   H         1 RES1   0.0000
    49 H4        2.5533   -4.6475    1.4084   H         1 RES1   0.0000
    50 H5        2.6642   -5.7310    2.7872   H         1 RES1   0.0000
    51 H6        2.6281   -3.5012    3.6037   H         1 RES1   0.0000
    52 H7        1.1779   -4.3400    4.1047   H         1 RES1   0.0000
    53 H8        0.8816   -2.6841    1.5867   H         1 RES1   0.0000
    54 H9        1.1292   -1.8370    3.1647   H         1 RES1   0.0000
    55 H10      -0.7707   -2.9514    4.1868   H         1 RES1   0.0000
    56 H11      -0.9269   -4.0551    2.7986   H         1 RES1   0.0000
    57 H12      -5.2687    0.8850   -0.2753   H         1 RES1   0.0000
    58 H13      -5.3159    1.7612   -2.6215   H         1 RES1   0.0000
    59 H14      -3.4406    1.2380   -4.1619   H         1 RES1   0.0000
    60 H15      -1.9215   -0.7552   -5.3451   H         1 RES1   0.0000
    61 H16       0.1682   -1.7883   -6.1251   H         1 RES1   0.0000
    62 H17       2.1947   -1.7559   -4.6848   H         1 RES1   0.0000
    63 H18       5.8811    0.5649    0.3907   H         1 RES1   0.0000
    64 H19       4.7115    0.3582    1.6977   H         1 RES1   0.0000
    65 H20       4.8590    2.8048   -0.1206   H         1 RES1   0.0000
    66 H21       5.7097    2.6995    1.4092   H         1 RES1   0.0000
    67 H22       2.7342    2.2207    1.4716   H         1 RES1   0.0000
    68 H23       3.3291    3.8673    1.2057   H         1 RES1   0.0000
    69 H24       3.0142    3.6540    3.5598   H         1 RES1   0.0000
    70 H25       4.7241    3.7573    3.2289   H         1 RES1   0.0000
    71 H26       3.2955    1.1059    3.7487   H         1 RES1   0.0000
    72 H27       4.1257    2.0571    4.9786   H         1 RES1   0.0000
    73 H28       5.0435    1.3807    3.6568   H         1 RES1   0.0000
    74 H29       3.6298   -2.8992    0.7772   H         1 RES1   0.0000
    75 H30       5.0294   -1.7907    0.9666   H         1 RES1   0.0000
    76 H31       4.1901   -3.3095   -1.5570   H         1 RES1   0.0000
    77 H32       5.5746   -3.6669   -0.5230   H         1 RES1   0.0000
    78 H33       6.6870   -1.5901   -1.1871   H         1 RES1   0.0000
    79 H34       5.2573   -1.0390   -2.0630   H         1 RES1   0.0000
    80 H35       5.4619   -3.0209   -3.5882   H         1 RES1   0.0000
    81 H36       6.9623   -3.4592   -2.7776   H         1 RES1   0.0000
    82 H37       6.4725   -0.7988   -4.2006   H         1 RES1   0.0000
    83 H38       7.4021   -2.1539   -4.8442   H         1 RES1   0.0000
    84 H39       7.9792   -1.2857   -3.4328   H         1 RES1   0.0000
    85 H40      -1.0621   -0.7091    4.6424   H         1 RES1   0.0000
    86 H41      -1.9393    0.7328    4.1606   H         1 RES1   0.0000
    87 H42       0.5810    0.3469    2.5517   H         1 RES1   0.0000
    88 H43       0.8178    0.5388    4.3351   H         1 RES1   0.0000
    89 H44       0.9440    2.7139    3.4820   H         1 RES1   0.0000
    90 H45      -0.6290    2.6140    4.2457   H         1 RES1   0.0000
    91 H46      -0.5958    1.8590    1.3430   H         1 RES1   0.0000
    92 H47      -0.1666    3.5633    1.6932   H         1 RES1   0.0000
    93 H48      -2.8001    2.2609    2.5398   H         1 RES1   0.0000
    94 H49      -2.5591    3.4446    1.2638   H         1 RES1   0.0000
    95 H50      -2.2786    3.8992    2.9311   H         1 RES1   0.0000
    96 O1       -0.4371    2.1954   -0.9803   O.3       1 RES1   0.0000
    97 H51       0.1698    2.8949   -1.2754   H         1 RES1   0.0000
    98 H52      -1.3132    2.6111   -1.0260   H         1 RES1   0.0000
@<TRIPOS>BOND
     1     1     8    1
     2     1     9    1
     3     1    22    1
     4     1    23    1
     5     1    36    1
     6     1    37    1
     7     1    38    1
     8     1    39    1
     9     1    96    1
    10     2     3    1
    11     2    46    1
    12     2    47    1
    13     2    48    1
    14     3     4    1
    15     3    49    1
    16     3    50    1
    17     4     5    1
    18     4    51    1
    19     4    52    1
    20     5     6    1
    21     5    53    1
    22     5    54    1
    23     6     7    1
    24     6    55    1
    25     6    56    1
    26     7     8    1
    27     7    40    2
    28     8     9    2
    29     9    10    1
    30    10    11    1
    31    10    39    2
    32    11    12    1
    33    11    38    2
    34    12    13    2
    35    12    57    1
    36    13    14    1
    37    13    58    1
    38    14    15    2
    39    14    59    1
    40    15    16    1
    41    15    38    1
    42    16    17    1
    43    16    37    2
    44    17    18    2
    45    17    60    1
    46    18    19    1
    47    18    61    1
    48    19    20    2
    49    19    62    1
    50    20    21    1
    51    20    37    1
    52    21    22    1
    53    21    36    2
    54    22    23    2
    55    23    24    1
    56    24    25    1
    57    24    30    2
    58    25    26    1
    59    25    63    1
    60    25    64    1
    61    26    27    1
    62    26    65    1
    63    26    66    1
    64    27    28    1
    65    27    67    1
    66    27    68    1
    67    28    29    1
    68    28    69    1
    69    28    70    1
    70    29    71    1
    71    29    72    1
    72    29    73    1
    73    30    31    1
    74    30    36    1
    75    31    32    1
    76    31    74    1
    77    31    75    1
    78    32    33    1
    79    32    76    1
    80    32    77    1
    81    33    34    1
    82    33    78    1
    83    33    79    1
    84    34    35    1
    85    34    80    1
    86    34    81    1
    87    35    82    1
    88    35    83    1
    89    35    84    1
    90    39    40    1
    91    40    41    1
    92    41    42    1
    93    41    85    1
    94    41    86    1
    95    42    43    1
    96    42    87    1
    97    42    88    1
    98    43    44    1
    99    43    89    1
   100    43    90    1
   101    44    45    1
   102    44    91    1
   103    44    92    1
   104    45    93    1
   105    45    94    1
   106    45    95    1
   107    96    97    1
   108    96    98    1
@<TRIPOS>SUBSTRUCTURE
     1 RES1       98 GROUP             0 ****  ****    0  
