@<TRIPOS>MOLECULE
am_c3_9H2O_c0_0_nunpairedes_0_charge_3 Charge: 3 Unpaired_Electrons: 2 XTB_Unpaired_Electrons: 0 XTB_Charge: 3
   394   399     1     0     0
SMALL
NoCharges
****
Generated from Architector

@<TRIPOS>ATOM
     1 Pr1      -0.5324    0.2517   -0.1056   Pr        1 RES1   0.0000
     2 C1      -10.9538   -0.6343    1.0768   C.3       1 RES1   0.0000
     3 C2      -11.6210    0.7217    0.8703   C.3       1 RES1   0.0000
     4 C3      -10.7843    1.9483    1.2544   C.3       1 RES1   0.0000
     5 C4      -10.5533    2.1669    2.7570   C.3       1 RES1   0.0000
     6 C5       -9.3166    1.5004    3.3694   C.3       1 RES1   0.0000
     7 C6       -7.9938    2.0361    2.8183   C.3       1 RES1   0.0000
     8 C7       -6.7897    1.4738    3.5778   C.3       1 RES1   0.0000
     9 C8       -5.4292    1.9286    3.0331   C.3       1 RES1   0.0000
    10 N1       -4.8067    1.1025    1.9838   N.am      1 RES1   0.0000
    11 C9       -5.6329    0.2251    1.1690   C.3       1 RES1   0.0000
    12 C10      -6.0908    0.8827   -0.1352   C.3       1 RES1   0.0000
    13 C11      -7.1156   -0.0131   -0.8375   C.3       1 RES1   0.0000
    14 C12      -7.9513    0.7096   -1.8950   C.3       1 RES1   0.0000
    15 C13      -7.1742    1.1307   -3.1395   C.3       1 RES1   0.0000
    16 C14      -6.8686   -0.0404   -4.0697   C.3       1 RES1   0.0000
    17 C15      -6.1856    0.4270   -5.3544   C.3       1 RES1   0.0000
    18 C16      -5.8039   -0.7404   -6.2572   C.3       1 RES1   0.0000
    19 C17      -3.5243    1.2280    1.6518   C.2       1 RES1   0.0000
    20 O1       -2.9996    0.6139    0.6983   O.2       1 RES1   0.0000
    21 C18      -2.6134    2.1050    2.5063   C.3       1 RES1   0.0000
    22 C19      -2.1213    1.2630    3.6915   C.3       1 RES1   0.0000
    23 C20      -1.4975    2.1370    4.7815   C.3       1 RES1   0.0000
    24 C21      -2.5536    2.7947    5.6654   C.3       1 RES1   0.0000
    25 O2       -1.5083    2.5237    1.6974   O.3       1 RES1   0.0000
    26 C22      -1.8334    3.7205    0.9628   C.3       1 RES1   0.0000
    27 C23      -1.6934    4.9538    1.8684   C.3       1 RES1   0.0000
    28 C24      -2.7985    5.9918    1.6283   C.3       1 RES1   0.0000
    29 C25      -4.1417    5.6410    2.2652   C.3       1 RES1   0.0000
    30 C26      -1.1804    3.5559   -0.4279   C.2       1 RES1   0.0000
    31 O3       -1.2590    2.3832   -0.8676   O.2       1 RES1   0.0000
    32 N2       -0.7585    4.5478   -1.2110   N.am      1 RES1   0.0000
    33 C27      -0.2943    5.8568   -0.7408   C.3       1 RES1   0.0000
    34 C28       0.5968    6.6469   -1.7025   C.3       1 RES1   0.0000
    35 C29       1.1715    7.9063   -1.0320   C.3       1 RES1   0.0000
    36 C30       2.4824    8.3367   -1.7141   C.3       1 RES1   0.0000
    37 C31       3.7125    7.6862   -1.0589   C.3       1 RES1   0.0000
    38 C32       4.8447    7.3521   -2.0313   C.3       1 RES1   0.0000
    39 C33       6.0102    6.6435   -1.3371   C.3       1 RES1   0.0000
    40 C34       7.0638    6.1550   -2.3236   C.3       1 RES1   0.0000
    41 C35      -0.7635    4.2756   -2.6509   C.3       1 RES1   0.0000
    42 C36      -2.1265    4.5878   -3.3018   C.3       1 RES1   0.0000
    43 C37      -2.3875    6.0640   -3.6396   C.3       1 RES1   0.0000
    44 C38      -3.0934    6.8756   -2.5461   C.3       1 RES1   0.0000
    45 C39      -2.8994    8.3794   -2.7606   C.3       1 RES1   0.0000
    46 C40      -3.7139    9.2653   -1.8113   C.3       1 RES1   0.0000
    47 C41      -3.2516    9.2350   -0.3541   C.3       1 RES1   0.0000
    48 C42      -4.0354   10.2226    0.5008   C.3       1 RES1   0.0000
    49 H1      -11.5865   -1.4114    0.6539   H         1 RES1   0.0000
    50 H2      -10.8138   -0.8568    2.1316   H         1 RES1   0.0000
    51 H3       -9.9892   -0.6722    0.5713   H         1 RES1   0.0000
    52 H4      -12.5587    0.7460    1.4298   H         1 RES1   0.0000
    53 H5      -11.8722    0.8154   -0.1911   H         1 RES1   0.0000
    54 H6      -11.3280    2.8172    0.8737   H         1 RES1   0.0000
    55 H7       -9.8292    1.9137    0.7263   H         1 RES1   0.0000
    56 H8      -11.4330    1.8150    3.2980   H         1 RES1   0.0000
    57 H9      -10.4780    3.2415    2.9374   H         1 RES1   0.0000
    58 H10      -9.3643    0.4234    3.2114   H         1 RES1   0.0000
    59 H11      -9.3529    1.6801    4.4462   H         1 RES1   0.0000
    60 H12      -7.9816    3.1238    2.9076   H         1 RES1   0.0000
    61 H13      -7.9267    1.7892    1.7605   H         1 RES1   0.0000
    62 H14      -6.8407    0.3866    3.6383   H         1 RES1   0.0000
    63 H15      -6.8455    1.8267    4.6100   H         1 RES1   0.0000
    64 H16      -4.7397    1.9512    3.8773   H         1 RES1   0.0000
    65 H17      -5.5433    2.9489    2.6429   H         1 RES1   0.0000
    66 H18      -6.4998   -0.0631    1.7582   H         1 RES1   0.0000
    67 H19      -5.0442   -0.6689    0.9513   H         1 RES1   0.0000
    68 H20      -5.2251    1.0644   -0.7768   H         1 RES1   0.0000
    69 H21      -6.5510    1.8464    0.0961   H         1 RES1   0.0000
    70 H22      -7.8026   -0.4011   -0.0799   H         1 RES1   0.0000
    71 H23      -6.6065   -0.8676   -1.2878   H         1 RES1   0.0000
    72 H24      -8.4141    1.5883   -1.4434   H         1 RES1   0.0000
    73 H25      -8.7560    0.0401   -2.1989   H         1 RES1   0.0000
    74 H26      -6.2450    1.6234   -2.8449   H         1 RES1   0.0000
    75 H27      -7.7687    1.8580   -3.6933   H         1 RES1   0.0000
    76 H28      -7.8001   -0.5510   -4.3247   H         1 RES1   0.0000
    77 H29      -6.2279   -0.7654   -3.5584   H         1 RES1   0.0000
    78 H30      -5.2909    1.0072   -5.1032   H         1 RES1   0.0000
    79 H31      -6.8662    1.0892   -5.8934   H         1 RES1   0.0000
    80 H32      -5.0806   -1.3925   -5.7683   H         1 RES1   0.0000
    81 H33      -5.3639   -0.3773   -7.1829   H         1 RES1   0.0000
    82 H34      -6.6849   -1.3293   -6.5006   H         1 RES1   0.0000
    83 H35      -3.1351    2.9894    2.8800   H         1 RES1   0.0000
    84 H36      -2.9651    0.7166    4.1217   H         1 RES1   0.0000
    85 H37      -1.4189    0.5206    3.2978   H         1 RES1   0.0000
    86 H38      -0.8686    2.8981    4.3132   H         1 RES1   0.0000
    87 H39      -0.8610    1.5178    5.4097   H         1 RES1   0.0000
    88 H40      -3.2646    3.3786    5.0848   H         1 RES1   0.0000
    89 H41      -2.0840    3.4627    6.3816   H         1 RES1   0.0000
    90 H42      -3.1137    2.0485    6.2250   H         1 RES1   0.0000
    91 H43      -2.8993    3.6616    0.6670   H         1 RES1   0.0000
    92 H44      -1.7640    4.6297    2.9097   H         1 RES1   0.0000
    93 H45      -0.7139    5.4088    1.7713   H         1 RES1   0.0000
    94 H46      -2.9610    6.1141    0.5565   H         1 RES1   0.0000
    95 H47      -2.4744    6.9529    2.0320   H         1 RES1   0.0000
    96 H48      -4.5395    4.6960    1.8900   H         1 RES1   0.0000
    97 H49      -4.8653    6.4161    2.0197   H         1 RES1   0.0000
    98 H50      -4.0586    5.5922    3.3499   H         1 RES1   0.0000
    99 H51       0.2965    5.6872    0.1583   H         1 RES1   0.0000
   100 H52      -1.1465    6.4833   -0.4802   H         1 RES1   0.0000
   101 H53       0.0417    6.9689   -2.5800   H         1 RES1   0.0000
   102 H54       1.4302    6.0293   -2.0307   H         1 RES1   0.0000
   103 H55       1.3577    7.7152    0.0279   H         1 RES1   0.0000
   104 H56       0.4405    8.7152   -1.0784   H         1 RES1   0.0000
   105 H57       2.5817    9.4203   -1.6628   H         1 RES1   0.0000
   106 H58       2.4265    8.0706   -2.7723   H         1 RES1   0.0000
   107 H59       3.4034    6.7604   -0.5639   H         1 RES1   0.0000
   108 H60       4.0965    8.3487   -0.2804   H         1 RES1   0.0000
   109 H61       5.2013    8.2688   -2.5008   H         1 RES1   0.0000
   110 H62       4.4602    6.7029   -2.8237   H         1 RES1   0.0000
   111 H63       5.6307    5.7854   -0.7704   H         1 RES1   0.0000
   112 H64       6.4750    7.3213   -0.6215   H         1 RES1   0.0000
   113 H65       6.6234    5.4877   -3.0615   H         1 RES1   0.0000
   114 H66       7.5187    6.9842   -2.8548   H         1 RES1   0.0000
   115 H67       7.8550    5.6224   -1.8031   H         1 RES1   0.0000
   116 H68      -0.5395    3.2130   -2.7862   H         1 RES1   0.0000
   117 H69       0.0188    4.8485   -3.1446   H         1 RES1   0.0000
   118 H70      -2.9301    4.2124   -2.6653   H         1 RES1   0.0000
   119 H71      -2.1659    4.0166   -4.2317   H         1 RES1   0.0000
   120 H72      -3.0114    6.1068   -4.5332   H         1 RES1   0.0000
   121 H73      -1.4435    6.5432   -3.9062   H         1 RES1   0.0000
   122 H74      -2.7252    6.5864   -1.5632   H         1 RES1   0.0000
   123 H75      -4.1619    6.6529   -2.5674   H         1 RES1   0.0000
   124 H76      -3.2039    8.6137   -3.7836   H         1 RES1   0.0000
   125 H77      -1.8406    8.6376   -2.6625   H         1 RES1   0.0000
   126 H78      -4.7659    8.9734   -1.8636   H         1 RES1   0.0000
   127 H79      -3.6395   10.2950   -2.1678   H         1 RES1   0.0000
   128 H80      -2.1867    9.4777   -0.3050   H         1 RES1   0.0000
   129 H81      -3.3899    8.2330    0.0536   H         1 RES1   0.0000
   130 H82      -3.9114   11.2332    0.1248   H         1 RES1   0.0000
   131 H83      -3.6904   10.2004    1.5311   H         1 RES1   0.0000
   132 H84      -5.0950    9.9811    0.4872   H         1 RES1   0.0000
   133 C43       1.8237   10.2946    2.5074   C.3       1 RES1   0.0000
   134 C44       3.3043   10.3366    2.8719   C.3       1 RES1   0.0000
   135 C45       3.9841    8.9671    2.9679   C.3       1 RES1   0.0000
   136 C46       3.4333    8.0582    4.0798   C.3       1 RES1   0.0000
   137 C47       2.5360    6.9380    3.5497   C.3       1 RES1   0.0000
   138 C48       3.3629    5.8429    2.8729   C.3       1 RES1   0.0000
   139 C49       2.5597    5.0480    1.8442   C.3       1 RES1   0.0000
   140 C50       3.4219    3.9270    1.2606   C.3       1 RES1   0.0000
   141 N3        2.7446    3.2018    0.2033   N.am      1 RES1   0.0000
   142 C51       2.7690    3.7653   -1.1417   C.3       1 RES1   0.0000
   143 C52       3.6852    2.9253   -2.0382   C.3       1 RES1   0.0000
   144 C53       3.8189    3.5519   -3.4264   C.3       1 RES1   0.0000
   145 C54       4.1954    2.5429   -4.5111   C.3       1 RES1   0.0000
   146 C55       3.0461    1.6062   -4.8801   C.3       1 RES1   0.0000
   147 C56       1.9873    2.3032   -5.7342   C.3       1 RES1   0.0000
   148 C57       0.8678    1.3413   -6.1223   C.3       1 RES1   0.0000
   149 C58      -0.2618    2.0099   -6.8970   C.3       1 RES1   0.0000
   150 C59       2.0691    2.0707    0.3645   C.2       1 RES1   0.0000
   151 O4        1.2307    1.6780   -0.4758   O.2       1 RES1   0.0000
   152 C60       2.4021    1.1152    1.5061   C.3       1 RES1   0.0000
   153 C61       1.1924    0.9188    2.4254   C.3       1 RES1   0.0000
   154 C62       1.4677   -0.0007    3.6187   C.3       1 RES1   0.0000
   155 C63       2.1599    0.7148    4.7736   C.3       1 RES1   0.0000
   156 O5        2.6625   -0.1235    0.8815   O.3       1 RES1   0.0000
   157 C64       3.9829   -0.3368    0.3270   C.3       1 RES1   0.0000
   158 C65       4.8915   -0.5044    1.5742   C.3       1 RES1   0.0000
   159 C66       6.1703    0.3409    1.6787   C.3       1 RES1   0.0000
   160 C67       6.0369    1.8593    1.6725   C.3       1 RES1   0.0000
   161 C68       3.6217   -1.2516   -0.9910   C.2       1 RES1   0.0000
   162 O6        2.6931   -0.6612   -1.5492   O.2       1 RES1   0.0000
   163 N4        4.2517   -2.2753   -1.7039   N.am      1 RES1   0.0000
   164 C69       4.4486   -3.8361   -1.8118   C.3       1 RES1   0.0000
   165 C70       5.0994   -5.2274   -1.2882   C.3       1 RES1   0.0000
   166 C71       5.0034   -6.3565   -0.1800   C.3       1 RES1   0.0000
   167 C72       3.7548   -7.2192    0.1690   C.3       1 RES1   0.0000
   168 C73       3.1751   -7.0723    1.5913   C.3       1 RES1   0.0000
   169 C74       1.7943   -7.7454    1.7880   C.3       1 RES1   0.0000
   170 C75       0.6678   -6.7535    2.1431   C.3       1 RES1   0.0000
   171 C76      -0.6560   -7.0300    1.4302   C.3       1 RES1   0.0000
   172 C77       4.1681   -1.9738   -3.1629   C.3       1 RES1   0.0000
   173 C78       5.5132   -1.9971   -3.9213   C.3       1 RES1   0.0000
   174 C79       6.0589   -3.3140   -4.5405   C.3       1 RES1   0.0000
   175 C80       7.2260   -3.9794   -3.7720   C.3       1 RES1   0.0000
   176 C81       8.5491   -4.0875   -4.5489   C.3       1 RES1   0.0000
   177 C82       9.7780   -3.9838   -3.6381   C.3       1 RES1   0.0000
   178 C83       9.8672   -5.0730   -2.5690   C.3       1 RES1   0.0000
   179 C84      11.1305   -4.9575   -1.7179   C.3       1 RES1   0.0000
   180 H85       1.4421   11.3105    2.4435   H         1 RES1   0.0000
   181 H86       1.2454    9.7689    3.2638   H         1 RES1   0.0000
   182 H87       1.6702    9.8128    1.5421   H         1 RES1   0.0000
   183 H88       3.4252   10.8532    3.8259   H         1 RES1   0.0000
   184 H89       3.8323   10.9200    2.1131   H         1 RES1   0.0000
   185 H90       5.0483    9.1438    3.1412   H         1 RES1   0.0000
   186 H91       3.8961    8.4592    2.0042   H         1 RES1   0.0000
   187 H92       2.8711    8.6598    4.7939   H         1 RES1   0.0000
   188 H93       4.2630    7.5996    4.6206   H         1 RES1   0.0000
   189 H94       1.8262    7.3575    2.8360   H         1 RES1   0.0000
   190 H95       1.9656    6.5095    4.3772   H         1 RES1   0.0000
   191 H96       4.2148    6.2945    2.3627   H         1 RES1   0.0000
   192 H97       3.7583    5.1705    3.6351   H         1 RES1   0.0000
   193 H98       2.2433    5.7279    1.0490   H         1 RES1   0.0000
   194 H99       1.6691    4.6141    2.3109   H         1 RES1   0.0000
   195 H100      3.6857    3.2579    2.0746   H         1 RES1   0.0000
   196 H101      4.3426    4.3513    0.8587   H         1 RES1   0.0000
   197 H102      3.1395    4.7871   -1.0834   H         1 RES1   0.0000
   198 H103      1.7494    3.7451   -1.5369   H         1 RES1   0.0000
   199 H104      3.2583    1.9257   -2.1219   H         1 RES1   0.0000
   200 H105      4.6780    2.8379   -1.5852   H         1 RES1   0.0000
   201 H106      4.5830    4.3265   -3.3809   H         1 RES1   0.0000
   202 H107      2.8787    4.0318   -3.6998   H         1 RES1   0.0000
   203 H108      5.0557    1.9633   -4.1737   H         1 RES1   0.0000
   204 H109      4.4984    3.0894   -5.4071   H         1 RES1   0.0000
   205 H110      2.5782    1.1915   -3.9811   H         1 RES1   0.0000
   206 H111      3.4469    0.7686   -5.4520   H         1 RES1   0.0000
   207 H112      2.4586    2.6976   -6.6380   H         1 RES1   0.0000
   208 H113      1.5578    3.1458   -5.1880   H         1 RES1   0.0000
   209 H114      0.4725    0.8821   -5.2079   H         1 RES1   0.0000
   210 H115      1.2977    0.5493   -6.7361   H         1 RES1   0.0000
   211 H116     -0.7660    2.7520   -6.2798   H         1 RES1   0.0000
   212 H117     -0.9883    1.2662   -7.2195   H         1 RES1   0.0000
   213 H118      0.1223    2.5089   -7.7835   H         1 RES1   0.0000
   214 H119      3.2644    1.4668    2.0761   H         1 RES1   0.0000
   215 H120      0.8448    1.8945    2.7729   H         1 RES1   0.0000
   216 H121      0.3767    0.4695    1.8082   H         1 RES1   0.0000
   217 H122      2.0544   -0.8568    3.2807   H         1 RES1   0.0000
   218 H123      0.5073   -0.3803    3.9696   H         1 RES1   0.0000
   219 H124      3.1926    0.9640    4.5423   H         1 RES1   0.0000
   220 H125      2.1558    0.0743    5.6503   H         1 RES1   0.0000
   221 H126      1.6266    1.6279    5.0308   H         1 RES1   0.0000
   222 H127      4.2925    0.5854   -0.1995   H         1 RES1   0.0000
   223 H128      4.2863   -0.2745    2.4531   H         1 RES1   0.0000
   224 H129      5.1760   -1.5316    1.6906   H         1 RES1   0.0000
   225 H130      6.8561    0.0731    0.8922   H         1 RES1   0.0000
   226 H131      6.6667    0.0525    2.6073   H         1 RES1   0.0000
   227 H132      5.5829    2.2261    0.7554   H         1 RES1   0.0000
   228 H133      7.0259    2.3040    1.7498   H         1 RES1   0.0000
   229 H134      5.4726    2.2212    2.5267   H         1 RES1   0.0000
   230 H135      5.0919   -3.8011   -2.6749   H         1 RES1   0.0000
   231 H136      3.4618   -4.0969   -2.1404   H         1 RES1   0.0000
   232 H137      6.1729   -5.0563   -1.3297   H         1 RES1   0.0000
   233 H138      4.8549   -5.7784   -2.2044   H         1 RES1   0.0000
   234 H139      5.4963   -6.0738    0.7505   H         1 RES1   0.0000
   235 H140      5.7020   -7.0739   -0.6203   H         1 RES1   0.0000
   236 H141      4.0647   -8.2637    0.1134   H         1 RES1   0.0000
   237 H142      2.9800   -7.1188   -0.5793   H         1 RES1   0.0000
   238 H143      3.0911   -6.0301    1.9027   H         1 RES1   0.0000
   239 H144      3.8833   -7.5429    2.2719   H         1 RES1   0.0000
   240 H145      1.8734   -8.4768    2.5915   H         1 RES1   0.0000
   241 H146      1.5180   -8.2901    0.8836   H         1 RES1   0.0000
   242 H147      0.9841   -5.7470    1.8651   H         1 RES1   0.0000
   243 H148      0.5120   -6.7480    3.2238   H         1 RES1   0.0000
   244 H149     -0.4721   -7.3887    0.4223   H         1 RES1   0.0000
   245 H150     -1.2444   -6.1161    1.3640   H         1 RES1   0.0000
   246 H151     -1.2512   -7.7818    1.9326   H         1 RES1   0.0000
   247 H152      3.7651   -0.9688   -3.2759   H         1 RES1   0.0000
   248 H153      3.4734   -2.6540   -3.6682   H         1 RES1   0.0000
   249 H154      6.2655   -1.5505   -3.2752   H         1 RES1   0.0000
   250 H155      5.3612   -1.3005   -4.7470   H         1 RES1   0.0000
   251 H156      6.4267   -3.0697   -5.5378   H         1 RES1   0.0000
   252 H157      5.2340   -4.0146   -4.7133   H         1 RES1   0.0000
   253 H158      6.9482   -4.9895   -3.4742   H         1 RES1   0.0000
   254 H159      7.4255   -3.4063   -2.8677   H         1 RES1   0.0000
   255 H160      8.6230   -3.3044   -5.3089   H         1 RES1   0.0000
   256 H161      8.5901   -5.0474   -5.0668   H         1 RES1   0.0000
   257 H162      9.7876   -3.0076   -3.1470   H         1 RES1   0.0000
   258 H163     10.6645   -4.0483   -4.2693   H         1 RES1   0.0000
   259 H164      9.8513   -6.0570   -3.0404   H         1 RES1   0.0000
   260 H165      8.9985   -5.0114   -1.9095   H         1 RES1   0.0000
   261 H166     12.0235   -5.0940   -2.3245   H         1 RES1   0.0000
   262 H167     11.1217   -5.7209   -0.9410   H         1 RES1   0.0000
   263 H168     11.1900   -3.9827   -1.2336   H         1 RES1   0.0000
   264 C85      -2.7869   -1.3641    9.9566   C.3       1 RES1   0.0000
   265 C86      -3.3843   -0.6881    8.7277   C.3       1 RES1   0.0000
   266 C87      -3.2457   -1.5200    7.4504   C.3       1 RES1   0.0000
   267 C88      -1.7841   -1.7539    7.0576   C.3       1 RES1   0.0000
   268 C89      -1.5935   -2.0688    5.5719   C.3       1 RES1   0.0000
   269 C90      -2.3216   -3.3373    5.1307   C.3       1 RES1   0.0000
   270 C91      -2.2597   -3.5919    3.6187   C.3       1 RES1   0.0000
   271 C92      -3.2481   -2.7279    2.8270   C.3       1 RES1   0.0000
   272 N5       -3.2522   -3.0140    1.3873   N.am      1 RES1   0.0000
   273 C93      -4.3949   -3.7663    0.8716   C.3       1 RES1   0.0000
   274 C94      -4.6588   -5.1305    1.5305   C.3       1 RES1   0.0000
   275 C95      -5.5212   -5.1641    2.8001   C.3       1 RES1   0.0000
   276 C96      -6.8446   -4.3974    2.7562   C.3       1 RES1   0.0000
   277 C97      -7.8065   -4.8801    1.6736   C.3       1 RES1   0.0000
   278 C98      -9.1689   -4.1982    1.7889   C.3       1 RES1   0.0000
   279 C99     -10.2160   -4.7381    0.8159   C.3       1 RES1   0.0000
   280 C100     -9.9165   -4.4049   -0.6398   C.3       1 RES1   0.0000
   281 C101     -2.3734   -2.3556    0.6357   C.2       1 RES1   0.0000
   282 O7       -1.5760   -1.5372    1.1396   O.2       1 RES1   0.0000
   283 C102     -2.3174   -2.5251   -0.9049   C.3       1 RES1   0.0000
   284 C103     -3.4437   -1.6717   -1.5473   C.3       1 RES1   0.0000
   285 C104     -3.0902   -1.0211   -2.8971   C.3       1 RES1   0.0000
   286 C105     -2.2370    0.2540   -2.8189   C.3       1 RES1   0.0000
   287 O8       -1.1037   -1.9542   -1.3834   O.3       1 RES1   0.0000
   288 C106      0.0184   -2.8014   -1.6785   C.3       1 RES1   0.0000
   289 C107      0.5570   -2.3134   -3.0383   C.3       1 RES1   0.0000
   290 C108     -0.0605   -2.9804   -4.2711   C.3       1 RES1   0.0000
   291 C109      0.3855   -2.2516   -5.5326   C.3       1 RES1   0.0000
   292 C110      1.0455   -2.5651   -0.5430   C.2       1 RES1   0.0000
   293 O9        0.8399   -1.5552    0.1456   O.2       1 RES1   0.0000
   294 N6        2.0393   -3.4377   -0.3250   N.am      1 RES1   0.0000
   295 C111      2.9141   -3.1721    0.8668   C.3       1 RES1   0.0000
   296 C112      4.4115   -3.6147    1.0639   C.3       1 RES1   0.0000
   297 C113      5.9306   -3.2015    0.7129   C.3       1 RES1   0.0000
   298 C114      6.5038   -2.2439   -0.3563   C.3       1 RES1   0.0000
   299 C115      7.9862   -1.8632   -0.1946   C.3       1 RES1   0.0000
   300 C116      8.3943   -0.8604   -1.2958   C.3       1 RES1   0.0000
   301 C117      7.8580    0.5687   -1.1375   C.3       1 RES1   0.0000
   302 C118      7.9931    1.4115   -2.4007   C.3       1 RES1   0.0000
   303 C119      1.7666   -4.8593   -0.6140   C.3       1 RES1   0.0000
   304 C120      1.7605   -5.4002   -2.0636   C.3       1 RES1   0.0000
   305 C121      0.7803   -6.5736   -2.2692   C.3       1 RES1   0.0000
   306 C122      1.4400   -7.8063   -2.9204   C.3       1 RES1   0.0000
   307 C123      0.9349   -9.0981   -2.2739   C.3       1 RES1   0.0000
   308 C124      1.3601  -10.3943   -2.9722   C.3       1 RES1   0.0000
   309 C125      2.8654  -10.6651   -3.0214   C.3       1 RES1   0.0000
   310 C126      3.4813  -10.8584   -1.6401   C.3       1 RES1   0.0000
   311 H169     -3.0251   -0.7920   10.8506   H         1 RES1   0.0000
   312 H170     -1.7037   -1.4359    9.8828   H         1 RES1   0.0000
   313 H171     -3.1920   -2.3662   10.0786   H         1 RES1   0.0000
   314 H172     -2.8935    0.2780    8.5810   H         1 RES1   0.0000
   315 H173     -4.4456   -0.5017    8.9105   H         1 RES1   0.0000
   316 H174     -3.7623   -0.9932    6.6402   H         1 RES1   0.0000
   317 H175     -3.7496   -2.4769    7.6001   H         1 RES1   0.0000
   318 H176     -1.3753   -2.5660    7.6590   H         1 RES1   0.0000
   319 H177     -1.2143   -0.8504    7.2883   H         1 RES1   0.0000
   320 H178     -0.5229   -2.1865    5.3752   H         1 RES1   0.0000
   321 H179     -1.9604   -1.2242    4.9840   H         1 RES1   0.0000
   322 H180     -3.3650   -3.2933    5.4456   H         1 RES1   0.0000
   323 H181     -1.8735   -4.1911    5.6405   H         1 RES1   0.0000
   324 H182     -2.5089   -4.6382    3.4490   H         1 RES1   0.0000
   325 H183     -1.2484   -3.4106    3.2487   H         1 RES1   0.0000
   326 H184     -2.9902   -1.6740    2.9502   H         1 RES1   0.0000
   327 H185     -4.2588   -2.8900    3.1945   H         1 RES1   0.0000
   328 H186     -4.2381   -3.9370   -0.1924   H         1 RES1   0.0000
   329 H187     -5.2827   -3.1340    0.9848   H         1 RES1   0.0000
   330 H188     -3.7041   -5.6116    1.7461   H         1 RES1   0.0000
   331 H189     -5.1614   -5.7421    0.7813   H         1 RES1   0.0000
   332 H190     -4.9456   -4.8204    3.6589   H         1 RES1   0.0000
   333 H191     -5.7562   -6.2132    2.9838   H         1 RES1   0.0000
   334 H192     -6.6761   -3.3225    2.6428   H         1 RES1   0.0000
   335 H193     -7.3278   -4.5323    3.7253   H         1 RES1   0.0000
   336 H194     -7.9398   -5.9569    1.7773   H         1 RES1   0.0000
   337 H195     -7.3835   -4.6855    0.6883   H         1 RES1   0.0000
   338 H196     -9.0545   -3.1234    1.6321   H         1 RES1   0.0000
   339 H197     -9.5408   -4.3385    2.8037   H         1 RES1   0.0000
   340 H198    -11.1838   -4.3088    1.0828   H         1 RES1   0.0000
   341 H199    -10.2916   -5.8200    0.9322   H         1 RES1   0.0000
   342 H200     -9.8177   -3.3298   -0.7755   H         1 RES1   0.0000
   343 H201    -10.7239   -4.7534   -1.2761   H         1 RES1   0.0000
   344 H202     -9.0033   -4.8858   -0.9809   H         1 RES1   0.0000
   345 H203     -2.3718   -3.5864   -1.1919   H         1 RES1   0.0000
   346 H204     -4.3214   -2.3025   -1.6933   H         1 RES1   0.0000
   347 H205     -3.6876   -0.8687   -0.8478   H         1 RES1   0.0000
   348 H206     -4.0399   -0.7246   -3.3462   H         1 RES1   0.0000
   349 H207     -2.6326   -1.7443   -3.5759   H         1 RES1   0.0000
   350 H208     -2.6966    0.9599   -2.1182   H         1 RES1   0.0000
   351 H209     -2.2154    0.7211   -3.8060   H         1 RES1   0.0000
   352 H210     -1.1746    0.0784   -2.5357   H         1 RES1   0.0000
   353 H211     -0.2996   -3.8486   -1.7255   H         1 RES1   0.0000
   354 H212      0.3929   -1.2291   -3.0837   H         1 RES1   0.0000
   355 H213      1.6335   -2.4383   -3.0727   H         1 RES1   0.0000
   356 H214     -1.1498   -2.9808   -4.2143   H         1 RES1   0.0000
   357 H215      0.2556   -4.0228   -4.3388   H         1 RES1   0.0000
   358 H216     -0.0034   -1.2383   -5.5413   H         1 RES1   0.0000
   359 H217      0.0333   -2.7634   -6.4230   H         1 RES1   0.0000
   360 H218      1.4709   -2.2076   -5.5776   H         1 RES1   0.0000
   361 H219      2.4419   -3.7753    1.6548   H         1 RES1   0.0000
   362 H220      2.7389   -2.1367    1.1169   H         1 RES1   0.0000
   363 H221      4.3578   -4.6589    0.8124   H         1 RES1   0.0000
   364 H222      4.4286   -3.5792    2.1551   H         1 RES1   0.0000
   365 H223      6.4128   -4.1578    0.5167   H         1 RES1   0.0000
   366 H224      6.3777   -2.8842    1.6566   H         1 RES1   0.0000
   367 H225      5.9287   -1.3286   -0.4006   H         1 RES1   0.0000
   368 H226      6.4534   -2.7243   -1.3257   H         1 RES1   0.0000
   369 H227      8.6109   -2.7542   -0.2882   H         1 RES1   0.0000
   370 H228      8.1949   -1.4424    0.7880   H         1 RES1   0.0000
   371 H229      8.0584   -1.2550   -2.2562   H         1 RES1   0.0000
   372 H230      9.4818   -0.8089   -1.3409   H         1 RES1   0.0000
   373 H231      8.3931    1.0638   -0.3238   H         1 RES1   0.0000
   374 H232      6.7919    0.5444   -0.9088   H         1 RES1   0.0000
   375 H233      9.0132    1.4081   -2.7719   H         1 RES1   0.0000
   376 H234      7.7167    2.4445   -2.1910   H         1 RES1   0.0000
   377 H235      7.3250    1.0275   -3.1704   H         1 RES1   0.0000
   378 H236      0.8056   -5.1096   -0.1511   H         1 RES1   0.0000
   379 H237      2.5452   -5.3857   -0.0845   H         1 RES1   0.0000
   380 H238      2.7508   -5.7876   -2.2961   H         1 RES1   0.0000
   381 H239      1.5469   -4.6086   -2.7730   H         1 RES1   0.0000
   382 H240     -0.0685   -6.2510   -2.8774   H         1 RES1   0.0000
   383 H241      0.3811   -6.8723   -1.2996   H         1 RES1   0.0000
   384 H242      2.5235   -7.7509   -2.8062   H         1 RES1   0.0000
   385 H243      1.2335   -7.8234   -3.9914   H         1 RES1   0.0000
   386 H244     -0.1589   -9.0726   -2.2715   H         1 RES1   0.0000
   387 H245      1.2785   -9.1363   -1.2361   H         1 RES1   0.0000
   388 H246      0.9659  -10.4055   -3.9924   H         1 RES1   0.0000
   389 H247      0.8912  -11.2203   -2.4283   H         1 RES1   0.0000
   390 H248      3.3761   -9.8575   -3.5510   H         1 RES1   0.0000
   391 H249      3.0129  -11.5807   -3.5977   H         1 RES1   0.0000
   392 H250      3.5414   -9.9148   -1.1020   H         1 RES1   0.0000
   393 H251      4.4858  -11.2629   -1.7310   H         1 RES1   0.0000
   394 H252      2.8876  -11.5536   -1.0496   H         1 RES1   0.0000
@<TRIPOS>BOND
     1     1    20    1
     2     1    25    1
     3     1    31    1
     4     1   151    1
     5     1   156    1
     6     1   162    1
     7     1   282    1
     8     1   287    1
     9     1   293    1
    10     2     3    1
    11     2    49    1
    12     2    50    1
    13     2    51    1
    14     3     4    1
    15     3    52    1
    16     3    53    1
    17     4     5    1
    18     4    54    1
    19     4    55    1
    20     5     6    1
    21     5    56    1
    22     5    57    1
    23     6     7    1
    24     6    58    1
    25     6    59    1
    26     7     8    1
    27     7    60    1
    28     7    61    1
    29     8     9    1
    30     8    62    1
    31     8    63    1
    32     9    10    1
    33     9    64    1
    34     9    65    1
    35    10    11    1
    36    10    19    1
    37    11    12    1
    38    11    66    1
    39    11    67    1
    40    12    13    1
    41    12    68    1
    42    12    69    1
    43    13    14    1
    44    13    70    1
    45    13    71    1
    46    14    15    1
    47    14    72    1
    48    14    73    1
    49    15    16    1
    50    15    74    1
    51    15    75    1
    52    16    17    1
    53    16    76    1
    54    16    77    1
    55    17    18    1
    56    17    78    1
    57    17    79    1
    58    18    80    1
    59    18    81    1
    60    18    82    1
    61    19    20    2
    62    19    21    1
    63    21    22    1
    64    21    25    1
    65    21    83    1
    66    22    23    1
    67    22    84    1
    68    22    85    1
    69    23    24    1
    70    23    86    1
    71    23    87    1
    72    24    88    1
    73    24    89    1
    74    24    90    1
    75    25    26    1
    76    26    27    1
    77    26    30    1
    78    26    91    1
    79    27    28    1
    80    27    92    1
    81    27    93    1
    82    28    29    1
    83    28    94    1
    84    28    95    1
    85    29    96    1
    86    29    97    1
    87    29    98    1
    88    30    31    2
    89    30    32    1
    90    32    33    1
    91    32    41    1
    92    33    34    1
    93    33    99    1
    94    33   100    1
    95    34    35    1
    96    34   101    1
    97    34   102    1
    98    35    36    1
    99    35   103    1
   100    35   104    1
   101    36    37    1
   102    36   105    1
   103    36   106    1
   104    37    38    1
   105    37   107    1
   106    37   108    1
   107    38    39    1
   108    38   109    1
   109    38   110    1
   110    39    40    1
   111    39   111    1
   112    39   112    1
   113    40   113    1
   114    40   114    1
   115    40   115    1
   116    41    42    1
   117    41   116    1
   118    41   117    1
   119    42    43    1
   120    42   118    1
   121    42   119    1
   122    43    44    1
   123    43   120    1
   124    43   121    1
   125    44    45    1
   126    44   122    1
   127    44   123    1
   128    45    46    1
   129    45   124    1
   130    45   125    1
   131    46    47    1
   132    46   126    1
   133    46   127    1
   134    47    48    1
   135    47   128    1
   136    47   129    1
   137    48   130    1
   138    48   131    1
   139    48   132    1
   140   133   134    1
   141   133   180    1
   142   133   181    1
   143   133   182    1
   144   134   135    1
   145   134   183    1
   146   134   184    1
   147   135   136    1
   148   135   185    1
   149   135   186    1
   150   136   137    1
   151   136   187    1
   152   136   188    1
   153   137   138    1
   154   137   189    1
   155   137   190    1
   156   138   139    1
   157   138   191    1
   158   138   192    1
   159   139   140    1
   160   139   193    1
   161   139   194    1
   162   140   141    1
   163   140   195    1
   164   140   196    1
   165   141   142    1
   166   141   150    1
   167   142   143    1
   168   142   197    1
   169   142   198    1
   170   143   144    1
   171   143   199    1
   172   143   200    1
   173   144   145    1
   174   144   201    1
   175   144   202    1
   176   145   146    1
   177   145   203    1
   178   145   204    1
   179   146   147    1
   180   146   205    1
   181   146   206    1
   182   147   148    1
   183   147   207    1
   184   147   208    1
   185   148   149    1
   186   148   209    1
   187   148   210    1
   188   149   211    1
   189   149   212    1
   190   149   213    1
   191   150   151    2
   192   150   152    1
   193   152   153    1
   194   152   156    1
   195   152   214    1
   196   153   154    1
   197   153   215    1
   198   153   216    1
   199   154   155    1
   200   154   217    1
   201   154   218    1
   202   155   219    1
   203   155   220    1
   204   155   221    1
   205   156   157    1
   206   157   158    1
   207   157   161    1
   208   157   222    1
   209   158   159    1
   210   158   223    1
   211   158   224    1
   212   159   160    1
   213   159   225    1
   214   159   226    1
   215   160   227    1
   216   160   228    1
   217   160   229    1
   218   161   162    2
   219   161   163    1
   220   163   164    1
   221   163   172    1
   222   164   165    1
   223   164   230    1
   224   164   231    1
   225   165   166    1
   226   165   232    1
   227   165   233    1
   228   166   167    1
   229   166   234    1
   230   166   235    1
   231   167   168    1
   232   167   236    1
   233   167   237    1
   234   168   169    1
   235   168   238    1
   236   168   239    1
   237   169   170    1
   238   169   240    1
   239   169   241    1
   240   170   171    1
   241   170   242    1
   242   170   243    1
   243   171   244    1
   244   171   245    1
   245   171   246    1
   246   172   173    1
   247   172   247    1
   248   172   248    1
   249   173   174    1
   250   173   249    1
   251   173   250    1
   252   174   175    1
   253   174   251    1
   254   174   252    1
   255   175   176    1
   256   175   253    1
   257   175   254    1
   258   176   177    1
   259   176   255    1
   260   176   256    1
   261   177   178    1
   262   177   257    1
   263   177   258    1
   264   178   179    1
   265   178   259    1
   266   178   260    1
   267   179   261    1
   268   179   262    1
   269   179   263    1
   270   264   265    1
   271   264   311    1
   272   264   312    1
   273   264   313    1
   274   265   266    1
   275   265   314    1
   276   265   315    1
   277   266   267    1
   278   266   316    1
   279   266   317    1
   280   267   268    1
   281   267   318    1
   282   267   319    1
   283   268   269    1
   284   268   320    1
   285   268   321    1
   286   269   270    1
   287   269   322    1
   288   269   323    1
   289   270   271    1
   290   270   324    1
   291   270   325    1
   292   271   272    1
   293   271   326    1
   294   271   327    1
   295   272   273    1
   296   272   281    1
   297   273   274    1
   298   273   328    1
   299   273   329    1
   300   274   275    1
   301   274   330    1
   302   274   331    1
   303   275   276    1
   304   275   332    1
   305   275   333    1
   306   276   277    1
   307   276   334    1
   308   276   335    1
   309   277   278    1
   310   277   336    1
   311   277   337    1
   312   278   279    1
   313   278   338    1
   314   278   339    1
   315   279   280    1
   316   279   340    1
   317   279   341    1
   318   280   342    1
   319   280   343    1
   320   280   344    1
   321   281   282    2
   322   281   283    1
   323   283   284    1
   324   283   287    1
   325   283   345    1
   326   284   285    1
   327   284   346    1
   328   284   347    1
   329   285   286    1
   330   285   348    1
   331   285   349    1
   332   286   350    1
   333   286   351    1
   334   286   352    1
   335   287   288    1
   336   288   289    1
   337   288   292    1
   338   288   353    1
   339   289   290    1
   340   289   354    1
   341   289   355    1
   342   290   291    1
   343   290   356    1
   344   290   357    1
   345   291   358    1
   346   291   359    1
   347   291   360    1
   348   292   293    2
   349   292   294    1
   350   294   295    1
   351   294   303    1
   352   295   296    1
   353   295   361    1
   354   295   362    1
   355   296   297    1
   356   296   363    1
   357   296   364    1
   358   297   298    1
   359   297   365    1
   360   297   366    1
   361   298   299    1
   362   298   367    1
   363   298   368    1
   364   299   300    1
   365   299   369    1
   366   299   370    1
   367   300   301    1
   368   300   371    1
   369   300   372    1
   370   301   302    1
   371   301   373    1
   372   301   374    1
   373   302   375    1
   374   302   376    1
   375   302   377    1
   376   303   304    1
   377   303   378    1
   378   303   379    1
   379   304   305    1
   380   304   380    1
   381   304   381    1
   382   305   306    1
   383   305   382    1
   384   305   383    1
   385   306   307    1
   386   306   384    1
   387   306   385    1
   388   307   308    1
   389   307   386    1
   390   307   387    1
   391   308   309    1
   392   308   388    1
   393   308   389    1
   394   309   310    1
   395   309   390    1
   396   309   391    1
   397   310   392    1
   398   310   393    1
   399   310   394    1
@<TRIPOS>SUBSTRUCTURE
     1 RES1      394 GROUP             0 ****  ****    0  
