@<TRIPOS>MOLECULE
am_c3_9H2O_c0_0_nunpairedes_0_charge_2 Charge: 2 Unpaired_Electrons: 2 XTB_Unpaired_Electrons: 0 XTB_Charge: 2
    60    69     1     0     0
SMALL
NoCharges
****
Generated from Architector

@<TRIPOS>ATOM
     1 Pr1       0.5275   -0.4002    0.2389   Pr        1 RES1   0.0000
     2 C1       -2.9434   -3.3727    2.5767   C.ar      1 RES1   0.0000
     3 C2       -2.2283   -2.4155    3.2700   C.ar      1 RES1   0.0000
     4 C3       -1.5853   -1.4145    2.5534   C.ar      1 RES1   0.0000
     5 N1       -1.6814   -1.3082    1.2232   N.ar      1 RES1   0.0000
     6 C4       -2.3831   -2.2409    0.5558   C.ar      1 RES1   0.0000
     7 C5       -3.0305   -3.2846    1.1959   C.ar      1 RES1   0.0000
     8 C6       -2.3656   -2.0791   -0.9505   C.3       1 RES1   0.0000
     9 O1       -1.0476   -1.7099   -1.3697   O.3       1 RES1   0.0000
    10 C7       -0.1794   -2.7261   -1.7916   C.ar      1 RES1   0.0000
    11 C8       -0.4459   -4.0810   -1.8987   C.ar      1 RES1   0.0000
    12 C9        0.5561   -4.9376   -2.3403   C.ar      1 RES1   0.0000
    13 C10       1.8127   -4.4683   -2.6792   C.ar      1 RES1   0.0000
    14 C11       2.0991   -3.1156   -2.5636   C.ar      1 RES1   0.0000
    15 C12       1.1088   -2.2589   -2.1207   C.ar      1 RES1   0.0000
    16 O2        1.3131   -0.9129   -1.8055   O.3       1 RES1   0.0000
    17 C13       2.1595   -0.0834   -2.6000   C.3       1 RES1   0.0000
    18 C14       1.2968    1.1362   -2.9712   C.3       1 RES1   0.0000
    19 O3        0.4247    1.3819   -1.8604   O.3       1 RES1   0.0000
    20 C15       0.0816    2.7514   -1.6459   C.3       1 RES1   0.0000
    21 C16       0.8076    3.2330   -0.3923   C.3       1 RES1   0.0000
    22 O4        0.4891    2.2617    0.6090   O.3       1 RES1   0.0000
    23 C17       0.9386    2.5374    1.8933   C.ar      1 RES1   0.0000
    24 C18       1.6951    3.6369    2.2595   C.ar      1 RES1   0.0000
    25 C19       2.1834    3.7429    3.5556   C.ar      1 RES1   0.0000
    26 C20       1.8835    2.7734    4.4914   C.ar      1 RES1   0.0000
    27 C21       1.0769    1.6928    4.1545   C.ar      1 RES1   0.0000
    28 C22       0.6192    1.5605    2.8549   C.ar      1 RES1   0.0000
    29 O5       -0.1257    0.4853    2.3505   O.3       1 RES1   0.0000
    30 C23      -0.7387   -0.3959    3.2901   C.3       1 RES1   0.0000
    31 H1       -3.4034   -4.1922    3.0985   H         1 RES1   0.0000
    32 H2       -2.1586   -2.4448    4.3436   H         1 RES1   0.0000
    33 H3       -3.5720   -4.0243    0.6320   H         1 RES1   0.0000
    34 H4       -3.0186   -1.2618   -1.2830   H         1 RES1   0.0000
    35 H5       -2.7001   -2.9850   -1.4558   H         1 RES1   0.0000
    36 H6       -1.4025   -4.4969   -1.6253   H         1 RES1   0.0000
    37 H7        0.3506   -5.9925   -2.4030   H         1 RES1   0.0000
    38 H8        2.5806   -5.1445   -3.0187   H         1 RES1   0.0000
    39 H9        3.0836   -2.7290   -2.7847   H         1 RES1   0.0000
    40 H10       2.5003   -0.6134   -3.4918   H         1 RES1   0.0000
    41 H11       3.0183    0.2089   -1.9717   H         1 RES1   0.0000
    42 H12       0.6868    0.9159   -3.8573   H         1 RES1   0.0000
    43 H13       1.9379    1.9983   -3.1751   H         1 RES1   0.0000
    44 H14      -1.0013    2.8154   -1.4913   H         1 RES1   0.0000
    45 H15       0.3341    3.3739   -2.5054   H         1 RES1   0.0000
    46 H16       0.4527    4.2280   -0.1012   H         1 RES1   0.0000
    47 H17       1.8959    3.2562   -0.5508   H         1 RES1   0.0000
    48 H18       1.9213    4.4146    1.5521   H         1 RES1   0.0000
    49 H19       2.8085    4.5812    3.8168   H         1 RES1   0.0000
    50 H20       2.2762    2.8579    5.4894   H         1 RES1   0.0000
    51 H21       0.8170    0.9811    4.9193   H         1 RES1   0.0000
    52 H22      -1.3833    0.1682    3.9779   H         1 RES1   0.0000
    53 H23       0.0344   -0.9229    3.8714   H         1 RES1   0.0000
    54 N2        1.7573   -2.6115    0.7408   N.3       1 RES1   0.0000
    55 O6        2.2668   -3.6724    0.6651   O.2       1 RES1   0.0000
    56 O7        2.3694   -1.5570    0.4820   O.co2     1 RES1   0.0000
    57 O8        0.5725   -2.4617    1.0870   O.co2     1 RES1   0.0000
    58 O9        2.9244    0.9188    0.9286   O.3       1 RES1   0.0000
    59 H24       3.7440    0.8203    0.4253   H         1 RES1   0.0000
    60 H25       3.2143    0.7710    1.8402   H         1 RES1   0.0000
@<TRIPOS>BOND
     1     1     5    1
     2     1     9    1
     3     1    16    1
     4     1    19    1
     5     1    22    1
     6     1    29    1
     7     1    56    1
     8     1    57    1
     9     1    58    1
    10     2     3    1
    11     2     7    2
    12     2    31    1
    13     3     4    2
    14     3    32    1
    15     4     5    1
    16     4    30    1
    17     5     6    2
    18     6     7    1
    19     6     8    1
    20     7    33    1
    21     8     9    1
    22     8    34    1
    23     8    35    1
    24     9    10    1
    25    10    11    1
    26    10    15    2
    27    11    12    2
    28    11    36    1
    29    12    13    1
    30    12    37    1
    31    13    14    2
    32    13    38    1
    33    14    15    1
    34    14    39    1
    35    15    16    1
    36    16    17    1
    37    17    18    1
    38    17    40    1
    39    17    41    1
    40    18    19    1
    41    18    42    1
    42    18    43    1
    43    19    20    1
    44    20    21    1
    45    20    44    1
    46    20    45    1
    47    21    22    1
    48    21    46    1
    49    21    47    1
    50    22    23    1
    51    23    24    1
    52    23    28    2
    53    24    25    2
    54    24    48    1
    55    25    26    1
    56    25    49    1
    57    26    27    2
    58    26    50    1
    59    27    28    1
    60    27    51    1
    61    28    29    1
    62    29    30    1
    63    30    52    1
    64    30    53    1
    65    54    55    2
    66    54    56    1
    67    54    57    1
    68    58    59    1
    69    58    60    1
@<TRIPOS>SUBSTRUCTURE
     1 RES1       60 GROUP             0 ****  ****    0  
