@<TRIPOS>MOLECULE
am_c3_9H2O_c0_0_nunpairedes_0_charge_3 Charge: 3 Unpaired_Electrons: 2 XTB_Unpaired_Electrons: 0 XTB_Charge: 3
   172   186     1     0     0
SMALL
NoCharges
****
Generated from Architector

@<TRIPOS>ATOM
     1 Pr1      -0.0652    0.0052    0.0232   Pr        1 RES1   0.0000
     2 C1       -0.5618   -4.2373    2.3840   C.3       1 RES1   0.0000
     3 C2       -1.4510   -3.2929    3.1886   C.3       1 RES1   0.0000
     4 N1       -2.5340   -2.7317    2.3744   N.am      1 RES1   0.0000
     5 C3       -2.1953   -1.7829    1.5023   C.2       1 RES1   0.0000
     6 O1       -1.0126   -1.3911    1.4533   O.2       1 RES1   0.0000
     7 C4       -3.1500   -1.2109    0.4777   C.ar      1 RES1   0.0000
     8 C5       -4.4433   -1.6416    0.1819   C.ar      1 RES1   0.0000
     9 C6       -5.0997   -1.0337   -0.8755   C.ar      1 RES1   0.0000
    10 C7       -4.4806   -0.0392   -1.6204   C.ar      1 RES1   0.0000
    11 C8       -3.1750    0.3232   -1.2815   C.ar      1 RES1   0.0000
    12 C9       -2.2328    1.2859   -1.9865   C.2       1 RES1   0.0000
    13 O2       -1.0348    1.2608   -1.6260   O.2       1 RES1   0.0000
    14 N2       -2.5862    2.1259   -2.9606   N.am      1 RES1   0.0000
    15 C10      -3.9059    2.3351   -3.5408   C.3       1 RES1   0.0000
    16 C11      -4.8071    3.1194   -2.5943   C.3       1 RES1   0.0000
    17 C12      -1.5532    2.9369   -3.5539   C.ar      1 RES1   0.0000
    18 C13      -1.2748    2.6954   -4.8931   C.ar      1 RES1   0.0000
    19 C14      -0.3696    3.4848   -5.5764   C.ar      1 RES1   0.0000
    20 C15       0.2734    4.5134   -4.9108   C.ar      1 RES1   0.0000
    21 C16       0.0158    4.7326   -3.5693   C.ar      1 RES1   0.0000
    22 C17      -0.9067    3.9644   -2.8661   C.ar      1 RES1   0.0000
    23 C18      -1.2129    4.2809   -1.4340   C.3       1 RES1   0.0000
    24 N3       -2.5629   -0.2608   -0.2474   N.ar      1 RES1   0.0000
    25 C19      -3.8566   -3.0986    2.7443   C.ar      1 RES1   0.0000
    26 C20      -4.2322   -4.4306    2.6211   C.ar      1 RES1   0.0000
    27 C21      -5.4841   -4.8420    3.0364   C.ar      1 RES1   0.0000
    28 C22      -6.3642   -3.9146    3.5735   C.ar      1 RES1   0.0000
    29 C23      -5.9779   -2.5921    3.7097   C.ar      1 RES1   0.0000
    30 C24      -4.7168   -2.1586    3.3126   C.ar      1 RES1   0.0000
    31 C25      -4.3213   -0.7337    3.5376   C.3       1 RES1   0.0000
    32 H1        0.1653   -4.7022    3.0444   H         1 RES1   0.0000
    33 H2       -0.0379   -3.6931    1.5992   H         1 RES1   0.0000
    34 H3       -1.1520   -5.0309    1.9337   H         1 RES1   0.0000
    35 H4       -0.8513   -2.4624    3.5776   H         1 RES1   0.0000
    36 H5       -1.9005   -3.8252    4.0268   H         1 RES1   0.0000
    37 H6       -4.9270   -2.4188    0.7525   H         1 RES1   0.0000
    38 H7       -6.1047   -1.3269   -1.1324   H         1 RES1   0.0000
    39 H8       -5.0360    0.4077   -2.4249   H         1 RES1   0.0000
    40 H9       -4.3343    1.3805   -3.8469   H         1 RES1   0.0000
    41 H10      -3.7692    2.9215   -4.4499   H         1 RES1   0.0000
    42 H11      -4.8600    2.6617   -1.6101   H         1 RES1   0.0000
    43 H12      -5.8081    3.1863   -3.0045   H         1 RES1   0.0000
    44 H13      -4.4269    4.1307   -2.4854   H         1 RES1   0.0000
    45 H14      -1.7867    1.8916   -5.4000   H         1 RES1   0.0000
    46 H15      -0.1771    3.3047   -6.6213   H         1 RES1   0.0000
    47 H16       0.9613    5.1493   -5.4431   H         1 RES1   0.0000
    48 H17       0.5223    5.5380   -3.0579   H         1 RES1   0.0000
    49 H18      -2.2720    4.5083   -1.3111   H         1 RES1   0.0000
    50 H19      -0.6343    5.1443   -1.1070   H         1 RES1   0.0000
    51 H20      -0.9759    3.4231   -0.7989   H         1 RES1   0.0000
    52 H21      -3.5336   -5.1380    2.2074   H         1 RES1   0.0000
    53 H22      -5.7715   -5.8778    2.9505   H         1 RES1   0.0000
    54 H23      -7.3481   -4.2300    3.8910   H         1 RES1   0.0000
    55 H24      -6.6545   -1.8752    4.1510   H         1 RES1   0.0000
    56 H25      -4.4957   -0.4778    4.5814   H         1 RES1   0.0000
    57 H26      -4.9265   -0.0637    2.9262   H         1 RES1   0.0000
    58 H27      -3.2732   -0.5467    3.3115   H         1 RES1   0.0000
    59 C26       0.2282   -4.8977   -4.3661   C.3       1 RES1   0.0000
    60 C27      -0.3164   -4.9268   -2.9414   C.3       1 RES1   0.0000
    61 N4       -0.7825   -3.6003   -2.5644   N.am      1 RES1   0.0000
    62 C28      -0.1382   -2.6884   -1.8421   C.2       1 RES1   0.0000
    63 O3       -0.6720   -1.5869   -1.6055   O.2       1 RES1   0.0000
    64 C29       1.2173   -2.9111   -1.2226   C.ar      1 RES1   0.0000
    65 C30       2.2859   -3.6365   -1.7427   C.ar      1 RES1   0.0000
    66 C31       3.4796   -3.6192   -1.0372   C.ar      1 RES1   0.0000
    67 C32       3.5953   -2.8914    0.1393   C.ar      1 RES1   0.0000
    68 C33       2.4855   -2.1705    0.5813   C.ar      1 RES1   0.0000
    69 C34       2.3983   -1.1724    1.7156   C.2       1 RES1   0.0000
    70 O4        1.5217   -0.2931    1.6045   O.2       1 RES1   0.0000
    71 N5        3.1792   -1.1706    2.7967   N.am      1 RES1   0.0000
    72 C35       4.2616   -2.0769    3.1391   C.3       1 RES1   0.0000
    73 C36       5.6031   -1.4975    2.7000   C.3       1 RES1   0.0000
    74 C37       3.0134   -0.0245    3.6541   C.ar      1 RES1   0.0000
    75 C38       3.3048    1.2319    3.1363   C.ar      1 RES1   0.0000
    76 C39       3.1649    2.3558    3.9276   C.ar      1 RES1   0.0000
    77 C40       2.7293    2.2278    5.2361   C.ar      1 RES1   0.0000
    78 C41       2.4135    0.9785    5.7353   C.ar      1 RES1   0.0000
    79 C42       2.5419   -0.1676    4.9575   C.ar      1 RES1   0.0000
    80 C43       2.1705   -1.5032    5.5176   C.3       1 RES1   0.0000
    81 N6        1.3421   -2.1956   -0.1049   N.ar      1 RES1   0.0000
    82 C44      -2.0919   -3.2583   -3.0512   C.ar      1 RES1   0.0000
    83 C45      -3.1479   -4.0343   -2.5884   C.ar      1 RES1   0.0000
    84 C46      -4.4244   -3.8482   -3.0798   C.ar      1 RES1   0.0000
    85 C47      -4.6589   -2.8447   -4.0040   C.ar      1 RES1   0.0000
    86 C48      -3.6207   -2.0269   -4.4042   C.ar      1 RES1   0.0000
    87 C49      -2.3151   -2.2277   -3.9618   C.ar      1 RES1   0.0000
    88 C50      -1.2289   -1.3479   -4.4956   C.3       1 RES1   0.0000
    89 H28       0.5874   -5.8799   -4.6530   H         1 RES1   0.0000
    90 H29       1.0359   -4.1770   -4.4648   H         1 RES1   0.0000
    91 H30      -0.5595   -4.6139   -5.0577   H         1 RES1   0.0000
    92 H31       0.4170   -5.2851   -2.2169   H         1 RES1   0.0000
    93 H32      -1.1692   -5.6088   -2.9087   H         1 RES1   0.0000
    94 H33       2.2208   -4.1752   -2.6722   H         1 RES1   0.0000
    95 H34       4.3329   -4.1659   -1.4094   H         1 RES1   0.0000
    96 H35       4.5398   -2.8835    0.6559   H         1 RES1   0.0000
    97 H36       4.0594   -3.0639    2.7217   H         1 RES1   0.0000
    98 H37       4.2744   -2.1861    4.2233   H         1 RES1   0.0000
    99 H38       5.6118   -1.2805    1.6355   H         1 RES1   0.0000
   100 H39       6.4058   -2.1906    2.9289   H         1 RES1   0.0000
   101 H40       5.7897   -0.5690    3.2326   H         1 RES1   0.0000
   102 H41       3.6400    1.3147    2.1123   H         1 RES1   0.0000
   103 H42       3.4100    3.3280    3.5307   H         1 RES1   0.0000
   104 H43       2.6427    3.1002    5.8653   H         1 RES1   0.0000
   105 H44       2.0542    0.8779    6.7469   H         1 RES1   0.0000
   106 H45       1.4725   -1.3900    6.3435   H         1 RES1   0.0000
   107 H46       3.0554   -2.0068    5.9104   H         1 RES1   0.0000
   108 H47       1.7239   -2.1311    4.7475   H         1 RES1   0.0000
   109 H48      -2.9550   -4.7901   -1.8415   H         1 RES1   0.0000
   110 H49      -5.2236   -4.4910   -2.7549   H         1 RES1   0.0000
   111 H50      -5.6435   -2.7162   -4.4221   H         1 RES1   0.0000
   112 H51      -3.8068   -1.2269   -5.1055   H         1 RES1   0.0000
   113 H52      -1.2878   -1.2992   -5.5839   H         1 RES1   0.0000
   114 H53      -0.2396   -1.6998   -4.2147   H         1 RES1   0.0000
   115 H54      -1.3533   -0.3394   -4.0958   H         1 RES1   0.0000
   116 C51       3.6477    3.5764   -3.7113   C.3       1 RES1   0.0000
   117 C52       4.2763    2.5330   -2.7887   C.3       1 RES1   0.0000
   118 N7        3.3431    1.4750   -2.4290   N.am      1 RES1   0.0000
   119 C53       2.4440    1.4190   -1.4508   C.2       1 RES1   0.0000
   120 O5        1.8373    0.3433   -1.2519   O.2       1 RES1   0.0000
   121 C54       2.1061    2.5702   -0.5380   C.ar      1 RES1   0.0000
   122 C55       2.6610    3.8487   -0.5321   C.ar      1 RES1   0.0000
   123 C56       2.1888    4.7576    0.4006   C.ar      1 RES1   0.0000
   124 C57       1.1894    4.4011    1.2902   C.ar      1 RES1   0.0000
   125 C58       0.6916    3.0988    1.2377   C.ar      1 RES1   0.0000
   126 C59      -0.4591    2.5104    2.0265   C.2       1 RES1   0.0000
   127 O6       -1.0462    1.5477    1.4926   O.2       1 RES1   0.0000
   128 N8       -0.8511    2.9756    3.2130   N.am      1 RES1   0.0000
   129 C60      -0.3671    4.1627    3.9052   C.3       1 RES1   0.0000
   130 C61      -1.1744    5.3948    3.4914   C.3       1 RES1   0.0000
   131 C62      -2.1208    2.5440    3.7386   C.ar      1 RES1   0.0000
   132 C63      -3.2509    2.8112    2.9763   C.ar      1 RES1   0.0000
   133 C64      -4.5105    2.6600    3.5233   C.ar      1 RES1   0.0000
   134 C65      -4.6392    2.2527    4.8400   C.ar      1 RES1   0.0000
   135 C66      -3.5124    1.9127    5.5677   C.ar      1 RES1   0.0000
   136 C67      -2.2344    2.0290    5.0316   C.ar      1 RES1   0.0000
   137 C68      -1.0393    1.6049    5.8291   C.3       1 RES1   0.0000
   138 N9        1.1472    2.2347    0.3288   N.ar      1 RES1   0.0000
   139 C69       3.5077    0.2760   -3.2100   C.ar      1 RES1   0.0000
   140 C70       4.6572   -0.4642   -2.9839   C.ar      1 RES1   0.0000
   141 C71       4.9497   -1.5451   -3.7929   C.ar      1 RES1   0.0000
   142 C72       4.0669   -1.8992   -4.7979   C.ar      1 RES1   0.0000
   143 C73       2.8952   -1.1857   -4.9822   C.ar      1 RES1   0.0000
   144 C74       2.5991   -0.0697   -4.2077   C.ar      1 RES1   0.0000
   145 C75       1.3846    0.7667   -4.4617   C.3       1 RES1   0.0000
   146 H55       4.3124    4.4274   -3.8114   H         1 RES1   0.0000
   147 H56       2.6828    3.9171   -3.3442   H         1 RES1   0.0000
   148 H57       3.5072    3.1572   -4.7026   H         1 RES1   0.0000
   149 H58       4.7095    2.9685   -1.8866   H         1 RES1   0.0000
   150 H59       5.0976    2.0550   -3.3256   H         1 RES1   0.0000
   151 H60       3.4170    4.1682   -1.2225   H         1 RES1   0.0000
   152 H61       2.5927    5.7576    0.4283   H         1 RES1   0.0000
   153 H62       0.8069    5.1479    1.9628   H         1 RES1   0.0000
   154 H63       0.7081    4.2650    3.7631   H         1 RES1   0.0000
   155 H64      -0.5254    4.0069    4.9711   H         1 RES1   0.0000
   156 H65      -1.1839    5.5341    2.4130   H         1 RES1   0.0000
   157 H66      -0.7737    6.2873    3.9620   H         1 RES1   0.0000
   158 H67      -2.2059    5.2800    3.8139   H         1 RES1   0.0000
   159 H68      -3.1227    3.1612    1.9631   H         1 RES1   0.0000
   160 H69      -5.3842    2.8952    2.9382   H         1 RES1   0.0000
   161 H70      -5.6156    2.1938    5.2932   H         1 RES1   0.0000
   162 H71      -3.6158    1.5605    6.5823   H         1 RES1   0.0000
   163 H72      -1.3504    0.9946    6.6739   H         1 RES1   0.0000
   164 H73      -0.5039    2.4641    6.2333   H         1 RES1   0.0000
   165 H74      -0.3469    1.0400    5.2048   H         1 RES1   0.0000
   166 H75       5.3279   -0.1630   -2.1930   H         1 RES1   0.0000
   167 H76       5.8716   -2.0849   -3.6577   H         1 RES1   0.0000
   168 H77       4.3083   -2.7188   -5.4542   H         1 RES1   0.0000
   169 H78       2.2143   -1.4761   -5.7670   H         1 RES1   0.0000
   170 H79       0.8324    0.3855   -5.3164   H         1 RES1   0.0000
   171 H80       1.6696    1.7961   -4.6728   H         1 RES1   0.0000
   172 H81       0.7375    0.7744   -3.5804   H         1 RES1   0.0000
@<TRIPOS>BOND
     1     1     6    1
     2     1    13    1
     3     1    24    1
     4     1    63    1
     5     1    70    1
     6     1    81    1
     7     1   120    1
     8     1   127    1
     9     1   138    1
    10     2     3    1
    11     2    32    1
    12     2    33    1
    13     2    34    1
    14     3     4    1
    15     3    35    1
    16     3    36    1
    17     4     5    1
    18     4    25    1
    19     5     6    2
    20     5     7    1
    21     7     8    1
    22     7    24    2
    23     8     9    2
    24     8    37    1
    25     9    10    1
    26     9    38    1
    27    10    11    2
    28    10    39    1
    29    11    12    1
    30    11    24    1
    31    12    13    2
    32    12    14    1
    33    14    15    1
    34    14    17    1
    35    15    16    1
    36    15    40    1
    37    15    41    1
    38    16    42    1
    39    16    43    1
    40    16    44    1
    41    17    18    1
    42    17    22    2
    43    18    19    2
    44    18    45    1
    45    19    20    1
    46    19    46    1
    47    20    21    2
    48    20    47    1
    49    21    22    1
    50    21    48    1
    51    22    23    1
    52    23    49    1
    53    23    50    1
    54    23    51    1
    55    25    26    1
    56    25    30    2
    57    26    27    2
    58    26    52    1
    59    27    28    1
    60    27    53    1
    61    28    29    2
    62    28    54    1
    63    29    30    1
    64    29    55    1
    65    30    31    1
    66    31    56    1
    67    31    57    1
    68    31    58    1
    69    59    60    1
    70    59    89    1
    71    59    90    1
    72    59    91    1
    73    60    61    1
    74    60    92    1
    75    60    93    1
    76    61    62    1
    77    61    82    1
    78    62    63    2
    79    62    64    1
    80    64    65    1
    81    64    81    2
    82    65    66    2
    83    65    94    1
    84    66    67    1
    85    66    95    1
    86    67    68    2
    87    67    96    1
    88    68    69    1
    89    68    81    1
    90    69    70    2
    91    69    71    1
    92    71    72    1
    93    71    74    1
    94    72    73    1
    95    72    97    1
    96    72    98    1
    97    73    99    1
    98    73   100    1
    99    73   101    1
   100    74    75    1
   101    74    79    2
   102    75    76    2
   103    75   102    1
   104    76    77    1
   105    76   103    1
   106    77    78    2
   107    77   104    1
   108    78    79    1
   109    78   105    1
   110    79    80    1
   111    80   106    1
   112    80   107    1
   113    80   108    1
   114    82    83    1
   115    82    87    2
   116    83    84    2
   117    83   109    1
   118    84    85    1
   119    84   110    1
   120    85    86    2
   121    85   111    1
   122    86    87    1
   123    86   112    1
   124    87    88    1
   125    88   113    1
   126    88   114    1
   127    88   115    1
   128   116   117    1
   129   116   146    1
   130   116   147    1
   131   116   148    1
   132   117   118    1
   133   117   149    1
   134   117   150    1
   135   118   119    1
   136   118   139    1
   137   119   120    2
   138   119   121    1
   139   121   122    1
   140   121   138    2
   141   122   123    2
   142   122   151    1
   143   123   124    1
   144   123   152    1
   145   124   125    2
   146   124   153    1
   147   125   126    1
   148   125   138    1
   149   126   127    2
   150   126   128    1
   151   128   129    1
   152   128   131    1
   153   129   130    1
   154   129   154    1
   155   129   155    1
   156   130   156    1
   157   130   157    1
   158   130   158    1
   159   131   132    1
   160   131   136    2
   161   132   133    2
   162   132   159    1
   163   133   134    1
   164   133   160    1
   165   134   135    2
   166   134   161    1
   167   135   136    1
   168   135   162    1
   169   136   137    1
   170   137   163    1
   171   137   164    1
   172   137   165    1
   173   139   140    1
   174   139   144    2
   175   140   141    2
   176   140   166    1
   177   141   142    1
   178   141   167    1
   179   142   143    2
   180   142   168    1
   181   143   144    1
   182   143   169    1
   183   144   145    1
   184   145   170    1
   185   145   171    1
   186   145   172    1
@<TRIPOS>SUBSTRUCTURE
     1 RES1      172 GROUP             0 ****  ****    0  
