@<TRIPOS>MOLECULE
capped_square_antiprismatic_0_nunpairedes_0_charge_3 Charge: 3 Unpaired_Electrons: 2 XTB_Unpaired_Electrons: 0 XTB_Charge: 3
   340   345     1     0     0
SMALL
NoCharges
****
Generated from Architector

@<TRIPOS>ATOM
     1 Pr1       0.0027    0.1145    0.1376   Pr        1 RES1   0.0000
     2 C1      -11.1360    0.7822    2.9425   C.3       1 RES1   0.0000
     3 C2       -9.7331    1.2679    3.2885   C.3       1 RES1   0.0000
     4 C3       -9.0320    0.3192    4.2620   C.3       1 RES1   0.0000
     5 C4       -7.5329    0.5883    4.4051   C.3       1 RES1   0.0000
     6 C5       -6.8416   -0.4855    5.2522   C.3       1 RES1   0.0000
     7 C6       -5.3335   -0.5620    5.0034   C.3       1 RES1   0.0000
     8 C7       -4.9884   -1.2828    3.6992   C.3       1 RES1   0.0000
     9 C8       -3.4874   -1.2442    3.4010   C.3       1 RES1   0.0000
    10 C9       -3.1634   -1.9584    2.0845   C.3       1 RES1   0.0000
    11 C10      -3.0732   -3.4736    2.2727   C.3       1 RES1   0.0000
    12 C11      -3.5660   -4.2759    1.0764   C.3       1 RES1   0.0000
    13 C12      -2.8419   -3.9494   -0.2341   C.3       1 RES1   0.0000
    14 N1       -3.4099   -2.7796   -0.8896   N.am      1 RES1   0.0000
    15 C13      -4.6485   -3.0772   -1.5916   C.3       1 RES1   0.0000
    16 C14      -4.3173   -3.6971   -2.9551   C.3       1 RES1   0.0000
    17 C15      -5.4754   -4.5355   -3.4912   C.3       1 RES1   0.0000
    18 C16      -5.2904   -4.8681   -4.9798   C.3       1 RES1   0.0000
    19 C17      -5.8334   -3.7672   -5.8977   C.3       1 RES1   0.0000
    20 C18      -7.3677   -3.7380   -5.9368   C.3       1 RES1   0.0000
    21 C19      -7.8947   -3.0107   -7.1886   C.3       1 RES1   0.0000
    22 C20      -8.9349   -1.9250   -6.9173   C.3       1 RES1   0.0000
    23 C21     -10.1963   -2.4341   -6.2153   C.3       1 RES1   0.0000
    24 C22     -10.7683   -1.4177   -5.2236   C.3       1 RES1   0.0000
    25 C23     -11.6119   -2.0668   -4.1253   C.3       1 RES1   0.0000
    26 C24     -11.9420   -1.0706   -3.0194   C.3       1 RES1   0.0000
    27 C25      -2.7467   -1.6350   -0.9624   C.2       1 RES1   0.0000
    28 O1       -1.5253   -1.5010   -0.7117   O.2       1 RES1   0.0000
    29 C26      -3.5013   -0.3579   -1.2600   C.3       1 RES1   0.0000
    30 O2       -2.7599    0.7026   -0.6563   O.3       1 RES1   0.0000
    31 C27      -3.6182    1.7180   -0.1429   C.3       1 RES1   0.0000
    32 C28      -3.9239    1.4834    1.3405   C.3       1 RES1   0.0000
    33 O3       -2.7364    1.4271    2.1226   O.3       1 RES1   0.0000
    34 C29      -2.1964    2.6968    2.4516   C.3       1 RES1   0.0000
    35 C30      -1.3361    3.1394    1.2679   C.2       1 RES1   0.0000
    36 O4       -0.7000    2.2061    0.7221   O.2       1 RES1   0.0000
    37 N2       -1.3609    4.3755    0.7883   N.am      1 RES1   0.0000
    38 C31      -0.7286    4.6371   -0.5095   C.3       1 RES1   0.0000
    39 C32      -1.6978    4.6096   -1.7061   C.3       1 RES1   0.0000
    40 C33      -0.9469    4.3833   -3.0239   C.3       1 RES1   0.0000
    41 C34      -0.4750    2.9365   -3.2512   C.3       1 RES1   0.0000
    42 C35       0.3768    2.8948   -4.5272   C.3       1 RES1   0.0000
    43 C36       0.8482    1.5321   -5.0584   C.3       1 RES1   0.0000
    44 C37       2.0108    0.8784   -4.2902   C.3       1 RES1   0.0000
    45 C38       2.9900    0.1406   -5.2173   C.3       1 RES1   0.0000
    46 C39       4.1673   -0.5659   -4.5231   C.3       1 RES1   0.0000
    47 C40       5.3505    0.3771   -4.2807   C.3       1 RES1   0.0000
    48 C41       6.4145   -0.1627   -3.3120   C.3       1 RES1   0.0000
    49 C42       7.1892    0.9750   -2.6484   C.3       1 RES1   0.0000
    50 C43      -1.9040    5.5323    1.4892   C.3       1 RES1   0.0000
    51 C44      -0.8187    6.4259    2.1028   C.3       1 RES1   0.0000
    52 C45      -0.1588    5.8661    3.3659   C.3       1 RES1   0.0000
    53 C46       0.9685    6.8158    3.8072   C.3       1 RES1   0.0000
    54 C47       1.4486    6.6292    5.2532   C.3       1 RES1   0.0000
    55 C48       2.3207    5.3837    5.4745   C.3       1 RES1   0.0000
    56 C49       3.8228    5.6603    5.6091   C.3       1 RES1   0.0000
    57 C50       4.4656    6.4576    4.4792   C.3       1 RES1   0.0000
    58 C51       5.9539    6.7162    4.7361   C.3       1 RES1   0.0000
    59 C52       6.8922    5.5676    4.3536   C.3       1 RES1   0.0000
    60 C53       7.1509    5.4838    2.8485   C.3       1 RES1   0.0000
    61 C54       8.1971    4.4321    2.4952   C.3       1 RES1   0.0000
    62 H1      -11.6042    1.4504    2.2244   H         1 RES1   0.0000
    63 H2      -11.7604    0.7462    3.8308   H         1 RES1   0.0000
    64 H3      -11.0860   -0.2166    2.5140   H         1 RES1   0.0000
    65 H4       -9.7853    2.2671    3.7225   H         1 RES1   0.0000
    66 H5       -9.1409    1.3418    2.3714   H         1 RES1   0.0000
    67 H6       -9.1712   -0.7032    3.9020   H         1 RES1   0.0000
    68 H7       -9.5087    0.3819    5.2406   H         1 RES1   0.0000
    69 H8       -7.3737    1.5721    4.8543   H         1 RES1   0.0000
    70 H9       -7.0913    0.6145    3.4040   H         1 RES1   0.0000
    71 H10      -7.2893   -1.4611    5.0453   H         1 RES1   0.0000
    72 H11      -7.0129   -0.2706    6.3067   H         1 RES1   0.0000
    73 H12      -4.8615   -1.1027    5.8272   H         1 RES1   0.0000
    74 H13      -4.9200    0.4513    4.9844   H         1 RES1   0.0000
    75 H14      -5.5337   -0.8316    2.8627   H         1 RES1   0.0000
    76 H15      -5.3149   -2.3205    3.7676   H         1 RES1   0.0000
    77 H16      -2.9441   -1.7099    4.2248   H         1 RES1   0.0000
    78 H17      -3.1772   -0.2039    3.3286   H         1 RES1   0.0000
    79 H18      -2.2213   -1.5784    1.6446   H         1 RES1   0.0000
    80 H19      -3.9755   -1.7474    1.3854   H         1 RES1   0.0000
    81 H20      -3.7083   -3.7616    3.1088   H         1 RES1   0.0000
    82 H21      -2.0450   -3.7528    2.5107   H         1 RES1   0.0000
    83 H22      -4.6403   -4.1056    0.9864   H         1 RES1   0.0000
    84 H23      -3.4430   -5.3451    1.2712   H         1 RES1   0.0000
    85 H24      -2.9467   -4.8128   -0.8965   H         1 RES1   0.0000
    86 H25      -1.7919   -3.7399   -0.0424   H         1 RES1   0.0000
    87 H26      -5.2728   -2.1938   -1.6937   H         1 RES1   0.0000
    88 H27      -5.2045   -3.8155   -1.0127   H         1 RES1   0.0000
    89 H28      -3.4350   -4.3377   -2.8464   H         1 RES1   0.0000
    90 H29      -4.0642   -2.9262   -3.6826   H         1 RES1   0.0000
    91 H30      -6.4106   -3.9867   -3.3694   H         1 RES1   0.0000
    92 H31      -5.5550   -5.4578   -2.9101   H         1 RES1   0.0000
    93 H32      -5.8232   -5.7934   -5.2163   H         1 RES1   0.0000
    94 H33      -4.2304   -5.0422   -5.1987   H         1 RES1   0.0000
    95 H34      -5.4413   -3.9395   -6.9045   H         1 RES1   0.0000
    96 H35      -5.4801   -2.7861   -5.5670   H         1 RES1   0.0000
    97 H36      -7.7505   -3.2615   -5.0282   H         1 RES1   0.0000
    98 H37      -7.7215   -4.7704   -5.9286   H         1 RES1   0.0000
    99 H38      -8.3102   -3.7442   -7.8776   H         1 RES1   0.0000
   100 H39      -7.0529   -2.5398   -7.6991   H         1 RES1   0.0000
   101 H40      -8.4774   -1.1411   -6.3118   H         1 RES1   0.0000
   102 H41      -9.2004   -1.4733   -7.8720   H         1 RES1   0.0000
   103 H42      -9.9649   -3.3517   -5.6763   H         1 RES1   0.0000
   104 H43     -10.9564   -2.6851   -6.9520   H         1 RES1   0.0000
   105 H44     -11.3593   -0.6657   -5.7503   H         1 RES1   0.0000
   106 H45      -9.9421   -0.8844   -4.7445   H         1 RES1   0.0000
   107 H46     -11.0487   -2.9024   -3.6982   H         1 RES1   0.0000
   108 H47     -12.5361   -2.4659   -4.5452   H         1 RES1   0.0000
   109 H48     -11.0259   -0.7086   -2.5554   H         1 RES1   0.0000
   110 H49     -12.5517   -1.5360   -2.2511   H         1 RES1   0.0000
   111 H50     -12.4854   -0.2174   -3.4191   H         1 RES1   0.0000
   112 H51      -4.5121   -0.4026   -0.8474   H         1 RES1   0.0000
   113 H52      -3.5614   -0.1766   -2.3364   H         1 RES1   0.0000
   114 H53      -4.5490    1.7647   -0.7152   H         1 RES1   0.0000
   115 H54      -3.0931    2.6633   -0.2771   H         1 RES1   0.0000
   116 H55      -4.4040    0.5086    1.4674   H         1 RES1   0.0000
   117 H56      -4.6078    2.2635    1.7074   H         1 RES1   0.0000
   118 H57      -1.5511    2.5289    3.3164   H         1 RES1   0.0000
   119 H58      -2.9900    3.3977    2.7194   H         1 RES1   0.0000
   120 H59       0.0192    3.8564   -0.6507   H         1 RES1   0.0000
   121 H60      -0.2399    5.6148   -0.4798   H         1 RES1   0.0000
   122 H61      -2.2449    5.5530   -1.7653   H         1 RES1   0.0000
   123 H62      -2.4355    3.8134   -1.5942   H         1 RES1   0.0000
   124 H63      -0.0891    5.0606   -3.0722   H         1 RES1   0.0000
   125 H64      -1.6247    4.6489   -3.8385   H         1 RES1   0.0000
   126 H65      -1.3474    2.2833   -3.3600   H         1 RES1   0.0000
   127 H66       0.1012    2.5673   -2.3918   H         1 RES1   0.0000
   128 H67       1.2507    3.5331   -4.3772   H         1 RES1   0.0000
   129 H68      -0.2237    3.3517   -5.3166   H         1 RES1   0.0000
   130 H69       1.1780    1.7075   -6.0842   H         1 RES1   0.0000
   131 H70       0.0036    0.8464   -5.1005   H         1 RES1   0.0000
   132 H71       1.6123    0.1751   -3.5366   H         1 RES1   0.0000
   133 H72       2.5486    1.6784   -3.7812   H         1 RES1   0.0000
   134 H73       3.4052    0.8553   -5.9299   H         1 RES1   0.0000
   135 H74       2.4258   -0.5911   -5.7920   H         1 RES1   0.0000
   136 H75       4.4963   -1.3871   -5.1607   H         1 RES1   0.0000
   137 H76       3.8233   -1.0195   -3.5853   H         1 RES1   0.0000
   138 H77       4.9768    1.3360   -3.9102   H         1 RES1   0.0000
   139 H78       5.8278    0.5867   -5.2384   H         1 RES1   0.0000
   140 H79       7.1165   -0.8010   -3.8501   H         1 RES1   0.0000
   141 H80       5.9618   -0.7820   -2.5268   H         1 RES1   0.0000
   142 H81       7.4709    1.7199   -3.3901   H         1 RES1   0.0000
   143 H82       8.1025    0.6121   -2.1829   H         1 RES1   0.0000
   144 H83       6.5849    1.4543   -1.8744   H         1 RES1   0.0000
   145 H84      -2.5744    5.2033    2.2791   H         1 RES1   0.0000
   146 H85      -2.4775    6.1138    0.7643   H         1 RES1   0.0000
   147 H86      -1.2829    7.3833    2.3466   H         1 RES1   0.0000
   148 H87      -0.0501    6.6271    1.3552   H         1 RES1   0.0000
   149 H88       0.2442    4.8664    3.1699   H         1 RES1   0.0000
   150 H89      -0.9009    5.7845    4.1653   H         1 RES1   0.0000
   151 H90       0.5999    7.8419    3.7237   H         1 RES1   0.0000
   152 H91       1.8147    6.7053    3.1219   H         1 RES1   0.0000
   153 H92       0.5736    6.6030    5.9074   H         1 RES1   0.0000
   154 H93       2.0127    7.5177    5.5430   H         1 RES1   0.0000
   155 H94       2.1382    4.6811    4.6567   H         1 RES1   0.0000
   156 H95       2.0027    4.8934    6.3974   H         1 RES1   0.0000
   157 H96       4.3268    4.6987    5.7007   H         1 RES1   0.0000
   158 H97       3.9907    6.1897    6.5454   H         1 RES1   0.0000
   159 H98       3.9679    7.4224    4.3944   H         1 RES1   0.0000
   160 H99       4.3395    5.9307    3.5337   H         1 RES1   0.0000
   161 H100      6.0824    6.9346    5.7972   H         1 RES1   0.0000
   162 H101      6.2638    7.6039    4.1829   H         1 RES1   0.0000
   163 H102      6.4892    4.6177    4.7152   H         1 RES1   0.0000
   164 H103      7.8507    5.7213    4.8543   H         1 RES1   0.0000
   165 H104      7.5024    6.4550    2.4945   H         1 RES1   0.0000
   166 H105      6.2156    5.2607    2.3272   H         1 RES1   0.0000
   167 H106      9.1627    4.7102    2.9073   H         1 RES1   0.0000
   168 H107      8.3071    4.3461    1.4155   H         1 RES1   0.0000
   169 H108      7.9324    3.4579    2.9034   H         1 RES1   0.0000
   170 C55      10.7384   -0.6373    2.5004   C.3       1 RES1   0.0000
   171 C56       9.3015   -1.0936    2.7249   C.3       1 RES1   0.0000
   172 C57       8.5572   -0.1809    3.6982   C.3       1 RES1   0.0000
   173 C58       7.0991   -0.5917    3.9010   C.3       1 RES1   0.0000
   174 C59       6.3380    0.4401    4.7366   C.3       1 RES1   0.0000
   175 C60       4.8279    0.1942    4.8219   C.3       1 RES1   0.0000
   176 C61       4.0686    0.5770    3.5476   C.3       1 RES1   0.0000
   177 C62       3.7460    2.0660    3.4246   C.3       1 RES1   0.0000
   178 C63       3.2248    2.3947    2.0207   C.3       1 RES1   0.0000
   179 C64       2.7035    3.8383    1.8831   C.3       1 RES1   0.0000
   180 C65       3.4621    4.7628    0.9219   C.3       1 RES1   0.0000
   181 C66       2.9797    4.7374   -0.5318   C.3       1 RES1   0.0000
   182 N3        3.3419    3.4776   -1.1764   N.am      1 RES1   0.0000
   183 C67       4.5043    3.5986   -2.0475   C.3       1 RES1   0.0000
   184 C68       4.0627    4.1468   -3.4194   C.3       1 RES1   0.0000
   185 C69       5.1414    4.8684   -4.2332   C.3       1 RES1   0.0000
   186 C70       4.7909    4.8687   -5.7328   C.3       1 RES1   0.0000
   187 C71       5.3360    3.6998   -6.5712   C.3       1 RES1   0.0000
   188 C72       6.8396    3.4372   -6.3990   C.3       1 RES1   0.0000
   189 C73       7.4382    2.5184   -7.4911   C.3       1 RES1   0.0000
   190 C74       8.4273    1.4659   -6.9693   C.3       1 RES1   0.0000
   191 C75       9.6489    2.0546   -6.2643   C.3       1 RES1   0.0000
   192 C76      10.3929    1.0269   -5.4080   C.3       1 RES1   0.0000
   193 C77      11.3147    1.6553   -4.3588   C.3       1 RES1   0.0000
   194 C78      11.7891    0.6084   -3.3581   C.3       1 RES1   0.0000
   195 C79       2.6602    2.3570   -0.9728   C.2       1 RES1   0.0000
   196 O5        1.4863    2.3025   -0.5555   O.2       1 RES1   0.0000
   197 C80       3.3513    1.0112   -1.2003   C.3       1 RES1   0.0000
   198 O6        2.4368   -0.0436   -0.8542   O.3       1 RES1   0.0000
   199 C81       3.1259   -1.2849   -0.6851   C.3       1 RES1   0.0000
   200 C82       3.5110   -1.5137    0.7785   C.3       1 RES1   0.0000
   201 O7        2.4166   -1.3977    1.6889   O.3       1 RES1   0.0000
   202 C83       1.9964   -2.6445    2.2499   C.3       1 RES1   0.0000
   203 C84       1.0738   -3.2676    1.1966   C.2       1 RES1   0.0000
   204 O8        0.3575   -2.4299    0.6055   O.2       1 RES1   0.0000
   205 N4        1.1782   -4.5448    0.8507   N.am      1 RES1   0.0000
   206 C85       0.6650   -5.0311   -0.4399   C.3       1 RES1   0.0000
   207 C86       0.9712   -4.0815   -1.6083   C.3       1 RES1   0.0000
   208 C87       0.0093   -4.1814   -2.8021   C.3       1 RES1   0.0000
   209 C88      -0.0693   -2.8514   -3.5708   C.3       1 RES1   0.0000
   210 C89      -0.9726   -3.0035   -4.7951   C.3       1 RES1   0.0000
   211 C90      -1.3874   -1.7041   -5.4859   C.3       1 RES1   0.0000
   212 C91      -2.3694   -0.8388   -4.6719   C.3       1 RES1   0.0000
   213 C92      -3.5763   -0.3843   -5.5124   C.3       1 RES1   0.0000
   214 C93      -4.4954    0.6384   -4.8230   C.3       1 RES1   0.0000
   215 C94      -5.4339    0.0491   -3.7632   C.3       1 RES1   0.0000
   216 C95      -6.8857   -0.1240   -4.1842   C.3       1 RES1   0.0000
   217 C96      -7.6619   -0.6903   -3.0025   C.3       1 RES1   0.0000
   218 C97       1.7021   -5.5995    1.7140   C.3       1 RES1   0.0000
   219 C98       0.5966   -6.5417    2.2160   C.3       1 RES1   0.0000
   220 C99      -0.0285   -6.0773    3.5324   C.3       1 RES1   0.0000
   221 C100     -1.2438   -6.9330    3.9158   C.3       1 RES1   0.0000
   222 C101     -1.8241   -6.5677    5.2886   C.3       1 RES1   0.0000
   223 C102     -2.5995   -5.2409    5.3123   C.3       1 RES1   0.0000
   224 C103     -4.1348   -5.3299    5.3495   C.3       1 RES1   0.0000
   225 C104     -4.7911   -6.1908    4.2677   C.3       1 RES1   0.0000
   226 C105     -6.3173   -6.0481    4.2026   C.3       1 RES1   0.0000
   227 C106     -6.7856   -4.7468    3.5546   C.3       1 RES1   0.0000
   228 C107     -8.2703   -4.7677    3.1934   C.3       1 RES1   0.0000
   229 C108     -8.6560   -3.5603    2.3410   C.3       1 RES1   0.0000
   230 H109     11.2336   -1.2680    1.7647   H         1 RES1   0.0000
   231 H110     11.3010   -0.6820    3.4290   H         1 RES1   0.0000
   232 H111     10.7550    0.3880    2.1372   H         1 RES1   0.0000
   233 H112      9.2993   -2.1163    3.1046   H         1 RES1   0.0000
   234 H113      8.7769   -1.1007    1.7655   H         1 RES1   0.0000
   235 H114      8.5910    0.8390    3.3127   H         1 RES1   0.0000
   236 H115      9.0777   -0.1751    4.6557   H         1 RES1   0.0000
   237 H116      7.0761   -1.5644    4.3941   H         1 RES1   0.0000
   238 H117      6.6306   -0.7135    2.9188   H         1 RES1   0.0000
   239 H118      6.5158    1.4346    4.3227   H         1 RES1   0.0000
   240 H119      6.7463    0.4297    5.7473   H         1 RES1   0.0000
   241 H120      4.4150    0.7603    5.6577   H         1 RES1   0.0000
   242 H121      4.6537   -0.8626    5.0354   H         1 RES1   0.0000
   243 H122      3.1273    0.0184    3.4947   H         1 RES1   0.0000
   244 H123      4.6704    0.2751    2.6892   H         1 RES1   0.0000
   245 H124      4.6411    2.6532    3.6353   H         1 RES1   0.0000
   246 H125      2.9941    2.3291    4.1707   H         1 RES1   0.0000
   247 H126      2.4186    1.6759    1.7636   H         1 RES1   0.0000
   248 H127      4.0500    2.2355    1.3258   H         1 RES1   0.0000
   249 H128      2.7684    4.3082    2.8634   H         1 RES1   0.0000
   250 H129      1.6542    3.8147    1.5869   H         1 RES1   0.0000
   251 H130      4.5353    4.5528    0.9626   H         1 RES1   0.0000
   252 H131      3.3299    5.7942    1.2609   H         1 RES1   0.0000
   253 H132      3.4928    5.5315   -1.0769   H         1 RES1   0.0000
   254 H133      1.9065    4.9230   -0.5838   H         1 RES1   0.0000
   255 H134      4.9726    2.6278   -2.1654   H         1 RES1   0.0000
   256 H135      5.2167    4.2774   -1.5782   H         1 RES1   0.0000
   257 H136      3.2252    4.8405   -3.2749   H         1 RES1   0.0000
   258 H137      3.7066    3.3101   -4.0214   H         1 RES1   0.0000
   259 H138      6.1155    4.4069   -4.0886   H         1 RES1   0.0000
   260 H139      5.2296    5.9018   -3.8916   H         1 RES1   0.0000
   261 H140      5.1573    5.7940   -6.1752   H         1 RES1   0.0000
   262 H141      3.7051    4.8860   -5.8543   H         1 RES1   0.0000
   263 H142      5.1287    3.9469   -7.6146   H         1 RES1   0.0000
   264 H143      4.7956    2.7746   -6.3527   H         1 RES1   0.0000
   265 H144      7.0038    2.9794   -5.4173   H         1 RES1   0.0000
   266 H145      7.3647    4.3954   -6.4066   H         1 RES1   0.0000
   267 H146      7.9368    3.1369   -8.2402   H         1 RES1   0.0000
   268 H147      6.6312    1.9853   -8.0027   H         1 RES1   0.0000
   269 H148      7.9035    0.7953   -6.2821   H         1 RES1   0.0000
   270 H149      8.7523    0.8605   -7.8171   H         1 RES1   0.0000
   271 H150      9.3266    2.8733   -5.6227   H         1 RES1   0.0000
   272 H151     10.3311    2.4752   -7.0000   H         1 RES1   0.0000
   273 H152     10.9826    0.3623   -6.0420   H         1 RES1   0.0000
   274 H153      9.6594    0.4056   -4.8835   H         1 RES1   0.0000
   275 H154     10.7726    2.4418   -3.8272   H         1 RES1   0.0000
   276 H155     12.1839    2.1122   -4.8332   H         1 RES1   0.0000
   277 H156     10.9363    0.1332   -2.8796   H         1 RES1   0.0000
   278 H157     12.4040    1.0560   -2.5843   H         1 RES1   0.0000
   279 H158     12.3727   -0.1613   -3.8556   H         1 RES1   0.0000
   280 H159      4.2362    0.9478   -0.5591   H         1 RES1   0.0000
   281 H160      3.6443    0.8770   -2.2421   H         1 RES1   0.0000
   282 H161      4.0404   -1.2920   -1.2831   H         1 RES1   0.0000
   283 H162      2.4668   -2.0721   -1.0613   H         1 RES1   0.0000
   284 H163      4.2253   -0.7491    1.0936   H         1 RES1   0.0000
   285 H164      3.9884   -2.4941    0.8609   H         1 RES1   0.0000
   286 H165      1.4444   -2.4033    3.1661   H         1 RES1   0.0000
   287 H166      2.8596   -3.2739    2.4906   H         1 RES1   0.0000
   288 H167     -0.4099   -5.2052   -0.3750   H         1 RES1   0.0000
   289 H168      1.1432   -5.9944   -0.6188   H         1 RES1   0.0000
   290 H169      2.0098   -4.2250   -1.9234   H         1 RES1   0.0000
   291 H170      0.8346   -3.0620   -1.2476   H         1 RES1   0.0000
   292 H171     -0.9929   -4.4101   -2.4277   H         1 RES1   0.0000
   293 H172      0.3078   -4.9751   -3.4883   H         1 RES1   0.0000
   294 H173      0.9271   -2.5388   -3.8891   H         1 RES1   0.0000
   295 H174     -0.4545   -2.0688   -2.8992   H         1 RES1   0.0000
   296 H175     -1.8695   -3.5401   -4.4918   H         1 RES1   0.0000
   297 H176     -0.4601   -3.6271   -5.5276   H         1 RES1   0.0000
   298 H177     -1.8676   -1.9770   -6.4255   H         1 RES1   0.0000
   299 H178     -0.4983   -1.1298   -5.7414   H         1 RES1   0.0000
   300 H179     -1.8688    0.0514   -4.2643   H         1 RES1   0.0000
   301 H180     -2.7184   -1.4316   -3.8208   H         1 RES1   0.0000
   302 H181     -4.1486   -1.2703   -5.8018   H         1 RES1   0.0000
   303 H182     -3.2107    0.0740   -6.4338   H         1 RES1   0.0000
   304 H183     -5.0913    1.1372   -5.5904   H         1 RES1   0.0000
   305 H184     -3.8622    1.3997   -4.3553   H         1 RES1   0.0000
   306 H185     -5.4417    0.6921   -2.8784   H         1 RES1   0.0000
   307 H186     -5.0739   -0.9394   -3.4697   H         1 RES1   0.0000
   308 H187     -6.9424   -0.8048   -5.0328   H         1 RES1   0.0000
   309 H188     -7.3129    0.8316   -4.4854   H         1 RES1   0.0000
   310 H189     -7.1789   -1.6011   -2.6429   H         1 RES1   0.0000
   311 H190     -8.6839   -0.9264   -3.2790   H         1 RES1   0.0000
   312 H191     -7.7013    0.0303   -2.1844   H         1 RES1   0.0000
   313 H192      2.2092   -5.1794    2.5780   H         1 RES1   0.0000
   314 H193      2.4241   -6.1745    1.1370   H         1 RES1   0.0000
   315 H194      1.0162   -7.5378    2.3623   H         1 RES1   0.0000
   316 H195     -0.1826   -6.6413    1.4619   H         1 RES1   0.0000
   317 H196     -0.3212   -5.0253    3.4513   H         1 RES1   0.0000
   318 H197      0.7153   -6.1502    4.3288   H         1 RES1   0.0000
   319 H198     -0.9345   -7.9795    3.9467   H         1 RES1   0.0000
   320 H199     -2.0114   -6.8473    3.1444   H         1 RES1   0.0000
   321 H200     -0.9842   -6.5068    5.9830   H         1 RES1   0.0000
   322 H201     -2.4628   -7.3805    5.6344   H         1 RES1   0.0000
   323 H202     -2.2949   -4.6626    4.4415   H         1 RES1   0.0000
   324 H203     -2.3014   -4.6756    6.1991   H         1 RES1   0.0000
   325 H204     -4.5109   -4.3060    5.2710   H         1 RES1   0.0000
   326 H205     -4.4417   -5.7144    6.3220   H         1 RES1   0.0000
   327 H206     -4.5546   -7.2379    4.4595   H         1 RES1   0.0000
   328 H207     -4.3816   -5.9347    3.2883   H         1 RES1   0.0000
   329 H208     -6.7363   -6.1247    5.2046   H         1 RES1   0.0000
   330 H209     -6.7106   -6.8823    3.6173   H         1 RES1   0.0000
   331 H210     -6.2118   -4.5845    2.6364   H         1 RES1   0.0000
   332 H211     -6.6000   -3.9052    4.2252   H         1 RES1   0.0000
   333 H212     -8.8744   -4.7841    4.1032   H         1 RES1   0.0000
   334 H213     -8.4879   -5.6780    2.6302   H         1 RES1   0.0000
   335 H214     -8.4187   -2.6289    2.8565   H         1 RES1   0.0000
   336 H215     -9.7230   -3.5739    2.1285   H         1 RES1   0.0000
   337 H216     -8.1222   -3.5757    1.3878   H         1 RES1   0.0000
   338 O9       -0.1113   -0.0029    2.5816   O.3       1 RES1   0.0000
   339 H217     -0.9564   -0.2233    3.0130   H         1 RES1   0.0000
   340 H218      0.5255    0.1968    3.2875   H         1 RES1   0.0000
@<TRIPOS>BOND
     1     1    28    1
     2     1    30    1
     3     1    33    1
     4     1    36    1
     5     1   196    1
     6     1   198    1
     7     1   201    1
     8     1   204    1
     9     1   338    1
    10     2     3    1
    11     2    62    1
    12     2    63    1
    13     2    64    1
    14     3     4    1
    15     3    65    1
    16     3    66    1
    17     4     5    1
    18     4    67    1
    19     4    68    1
    20     5     6    1
    21     5    69    1
    22     5    70    1
    23     6     7    1
    24     6    71    1
    25     6    72    1
    26     7     8    1
    27     7    73    1
    28     7    74    1
    29     8     9    1
    30     8    75    1
    31     8    76    1
    32     9    10    1
    33     9    77    1
    34     9    78    1
    35    10    11    1
    36    10    79    1
    37    10    80    1
    38    11    12    1
    39    11    81    1
    40    11    82    1
    41    12    13    1
    42    12    83    1
    43    12    84    1
    44    13    14    1
    45    13    85    1
    46    13    86    1
    47    14    15    1
    48    14    27    1
    49    15    16    1
    50    15    87    1
    51    15    88    1
    52    16    17    1
    53    16    89    1
    54    16    90    1
    55    17    18    1
    56    17    91    1
    57    17    92    1
    58    18    19    1
    59    18    93    1
    60    18    94    1
    61    19    20    1
    62    19    95    1
    63    19    96    1
    64    20    21    1
    65    20    97    1
    66    20    98    1
    67    21    22    1
    68    21    99    1
    69    21   100    1
    70    22    23    1
    71    22   101    1
    72    22   102    1
    73    23    24    1
    74    23   103    1
    75    23   104    1
    76    24    25    1
    77    24   105    1
    78    24   106    1
    79    25    26    1
    80    25   107    1
    81    25   108    1
    82    26   109    1
    83    26   110    1
    84    26   111    1
    85    27    28    2
    86    27    29    1
    87    29    30    1
    88    29   112    1
    89    29   113    1
    90    30    31    1
    91    31    32    1
    92    31   114    1
    93    31   115    1
    94    32    33    1
    95    32   116    1
    96    32   117    1
    97    33    34    1
    98    34    35    1
    99    34   118    1
   100    34   119    1
   101    35    36    2
   102    35    37    1
   103    37    38    1
   104    37    50    1
   105    38    39    1
   106    38   120    1
   107    38   121    1
   108    39    40    1
   109    39   122    1
   110    39   123    1
   111    40    41    1
   112    40   124    1
   113    40   125    1
   114    41    42    1
   115    41   126    1
   116    41   127    1
   117    42    43    1
   118    42   128    1
   119    42   129    1
   120    43    44    1
   121    43   130    1
   122    43   131    1
   123    44    45    1
   124    44   132    1
   125    44   133    1
   126    45    46    1
   127    45   134    1
   128    45   135    1
   129    46    47    1
   130    46   136    1
   131    46   137    1
   132    47    48    1
   133    47   138    1
   134    47   139    1
   135    48    49    1
   136    48   140    1
   137    48   141    1
   138    49   142    1
   139    49   143    1
   140    49   144    1
   141    50    51    1
   142    50   145    1
   143    50   146    1
   144    51    52    1
   145    51   147    1
   146    51   148    1
   147    52    53    1
   148    52   149    1
   149    52   150    1
   150    53    54    1
   151    53   151    1
   152    53   152    1
   153    54    55    1
   154    54   153    1
   155    54   154    1
   156    55    56    1
   157    55   155    1
   158    55   156    1
   159    56    57    1
   160    56   157    1
   161    56   158    1
   162    57    58    1
   163    57   159    1
   164    57   160    1
   165    58    59    1
   166    58   161    1
   167    58   162    1
   168    59    60    1
   169    59   163    1
   170    59   164    1
   171    60    61    1
   172    60   165    1
   173    60   166    1
   174    61   167    1
   175    61   168    1
   176    61   169    1
   177   170   171    1
   178   170   230    1
   179   170   231    1
   180   170   232    1
   181   171   172    1
   182   171   233    1
   183   171   234    1
   184   172   173    1
   185   172   235    1
   186   172   236    1
   187   173   174    1
   188   173   237    1
   189   173   238    1
   190   174   175    1
   191   174   239    1
   192   174   240    1
   193   175   176    1
   194   175   241    1
   195   175   242    1
   196   176   177    1
   197   176   243    1
   198   176   244    1
   199   177   178    1
   200   177   245    1
   201   177   246    1
   202   178   179    1
   203   178   247    1
   204   178   248    1
   205   179   180    1
   206   179   249    1
   207   179   250    1
   208   180   181    1
   209   180   251    1
   210   180   252    1
   211   181   182    1
   212   181   253    1
   213   181   254    1
   214   182   183    1
   215   182   195    1
   216   183   184    1
   217   183   255    1
   218   183   256    1
   219   184   185    1
   220   184   257    1
   221   184   258    1
   222   185   186    1
   223   185   259    1
   224   185   260    1
   225   186   187    1
   226   186   261    1
   227   186   262    1
   228   187   188    1
   229   187   263    1
   230   187   264    1
   231   188   189    1
   232   188   265    1
   233   188   266    1
   234   189   190    1
   235   189   267    1
   236   189   268    1
   237   190   191    1
   238   190   269    1
   239   190   270    1
   240   191   192    1
   241   191   271    1
   242   191   272    1
   243   192   193    1
   244   192   273    1
   245   192   274    1
   246   193   194    1
   247   193   275    1
   248   193   276    1
   249   194   277    1
   250   194   278    1
   251   194   279    1
   252   195   196    2
   253   195   197    1
   254   197   198    1
   255   197   280    1
   256   197   281    1
   257   198   199    1
   258   199   200    1
   259   199   282    1
   260   199   283    1
   261   200   201    1
   262   200   284    1
   263   200   285    1
   264   201   202    1
   265   202   203    1
   266   202   286    1
   267   202   287    1
   268   203   204    2
   269   203   205    1
   270   205   206    1
   271   205   218    1
   272   206   207    1
   273   206   288    1
   274   206   289    1
   275   207   208    1
   276   207   290    1
   277   207   291    1
   278   208   209    1
   279   208   292    1
   280   208   293    1
   281   209   210    1
   282   209   294    1
   283   209   295    1
   284   210   211    1
   285   210   296    1
   286   210   297    1
   287   211   212    1
   288   211   298    1
   289   211   299    1
   290   212   213    1
   291   212   300    1
   292   212   301    1
   293   213   214    1
   294   213   302    1
   295   213   303    1
   296   214   215    1
   297   214   304    1
   298   214   305    1
   299   215   216    1
   300   215   306    1
   301   215   307    1
   302   216   217    1
   303   216   308    1
   304   216   309    1
   305   217   310    1
   306   217   311    1
   307   217   312    1
   308   218   219    1
   309   218   313    1
   310   218   314    1
   311   219   220    1
   312   219   315    1
   313   219   316    1
   314   220   221    1
   315   220   317    1
   316   220   318    1
   317   221   222    1
   318   221   319    1
   319   221   320    1
   320   222   223    1
   321   222   321    1
   322   222   322    1
   323   223   224    1
   324   223   323    1
   325   223   324    1
   326   224   225    1
   327   224   325    1
   328   224   326    1
   329   225   226    1
   330   225   327    1
   331   225   328    1
   332   226   227    1
   333   226   329    1
   334   226   330    1
   335   227   228    1
   336   227   331    1
   337   227   332    1
   338   228   229    1
   339   228   333    1
   340   228   334    1
   341   229   335    1
   342   229   336    1
   343   229   337    1
   344   338   339    1
   345   338   340    1
@<TRIPOS>SUBSTRUCTURE
     1 RES1      340 GROUP             0 ****  ****    0  
