@<TRIPOS>MOLECULE
am_c3_9H2O_c0_0_nunpairedes_0_charge_3 Charge: 3 Unpaired_Electrons: 2 XTB_Unpaired_Electrons: 0 XTB_Charge: 3
   148   161     1     0     0
SMALL
NoCharges
****
Generated from Architector

@<TRIPOS>ATOM
     1 Pr1      -0.0189    0.0849    0.1399   Pr        1 RES1   0.0000
     2 C1       -0.5468    2.9866    5.9071   C.3       1 RES1   0.0000
     3 C2        0.1838    1.7781    5.2988   C.3       1 RES1   0.0000
     4 N1        0.6824    1.9620    3.9361   N.am      1 RES1   0.0000
     5 C3        0.0153    1.5891    2.8383   C.2       1 RES1   0.0000
     6 O1        0.5395    1.6231    1.7062   O.2       1 RES1   0.0000
     7 C4       -1.4344    1.1062    2.8305   C.ar      1 RES1   0.0000
     8 C5       -2.4460    1.5463    3.6741   C.ar      1 RES1   0.0000
     9 C6       -3.7367    1.0514    3.5114   C.ar      1 RES1   0.0000
    10 C7       -3.9765    0.0839    2.5494   C.ar      1 RES1   0.0000
    11 C8       -2.9200   -0.3064    1.7213   C.ar      1 RES1   0.0000
    12 C9       -3.0849   -1.3612    0.6840   C.ar      1 RES1   0.0000
    13 C10      -4.1280   -2.2923    0.7295   C.ar      1 RES1   0.0000
    14 C11      -4.2093   -3.2498   -0.2712   C.ar      1 RES1   0.0000
    15 C12      -3.2829   -3.2339   -1.3054   C.ar      1 RES1   0.0000
    16 C13      -2.2995   -2.2478   -1.3043   C.ar      1 RES1   0.0000
    17 C14      -1.2141   -2.0885   -2.3340   C.2       1 RES1   0.0000
    18 O2       -0.1888   -1.4869   -1.9306   O.2       1 RES1   0.0000
    19 N2       -1.2802   -2.5733   -3.5787   N.am      1 RES1   0.0000
    20 C15      -0.0570   -2.5468   -4.3946   C.3       1 RES1   0.0000
    21 C16      -0.1049   -1.4800   -5.4824   C.3       1 RES1   0.0000
    22 C17      -2.4794   -2.8840   -4.2888   C.ar      1 RES1   0.0000
    23 C18      -2.4997   -3.8542   -5.2892   C.ar      1 RES1   0.0000
    24 C19      -3.6397   -4.0591   -6.0594   C.ar      1 RES1   0.0000
    25 C20      -3.6550   -5.0275   -7.1993   C.3       1 RES1   0.0000
    26 C21      -4.7853   -3.3227   -5.7716   C.ar      1 RES1   0.0000
    27 C22      -4.7963   -2.3683   -4.7663   C.ar      1 RES1   0.0000
    28 C23      -6.0298   -1.5820   -4.4469   C.3       1 RES1   0.0000
    29 C24      -3.6236   -2.1292   -4.0586   C.ar      1 RES1   0.0000
    30 N3       -2.1737   -1.3683   -0.2986   N.ar      1 RES1   0.0000
    31 N4       -1.7090    0.2522    1.8272   N.ar      1 RES1   0.0000
    32 C25       2.0161    2.5065    3.8434   C.ar      1 RES1   0.0000
    33 C26       2.4045    3.4578    4.7845   C.ar      1 RES1   0.0000
    34 C27       3.6509    4.0585    4.7310   C.ar      1 RES1   0.0000
    35 C28       4.0716    5.0888    5.7254   C.3       1 RES1   0.0000
    36 C29       4.5150    3.7015    3.7052   C.ar      1 RES1   0.0000
    37 C30       4.1699    2.7307    2.7825   C.ar      1 RES1   0.0000
    38 C31       5.1279    2.3689    1.6923   C.3       1 RES1   0.0000
    39 C32       2.9238    2.1146    2.8663   C.ar      1 RES1   0.0000
    40 H1       -1.3212    2.6627    6.6000   H         1 RES1   0.0000
    41 H2       -0.9769    3.6243    5.1393   H         1 RES1   0.0000
    42 H3        0.1212    3.6123    6.4869   H         1 RES1   0.0000
    43 H4       -0.4776    0.9142    5.3068   H         1 RES1   0.0000
    44 H5        1.0533    1.5344    5.9143   H         1 RES1   0.0000
    45 H6       -2.2403    2.2421    4.4632   H         1 RES1   0.0000
    46 H7       -4.5332    1.3944    4.1577   H         1 RES1   0.0000
    47 H8       -4.9506   -0.3649    2.4380   H         1 RES1   0.0000
    48 H9       -4.8570   -2.2887    1.5297   H         1 RES1   0.0000
    49 H10      -4.9997   -3.9850   -0.2458   H         1 RES1   0.0000
    50 H11      -3.3388   -3.9622   -2.0966   H         1 RES1   0.0000
    51 H12       0.0762   -3.5315   -4.8490   H         1 RES1   0.0000
    52 H13       0.7925   -2.3549   -3.7385   H         1 RES1   0.0000
    53 H14      -0.9239   -1.6759   -6.1674   H         1 RES1   0.0000
    54 H15       0.8223   -1.4820   -6.0499   H         1 RES1   0.0000
    55 H16      -0.2343   -0.4915   -5.0472   H         1 RES1   0.0000
    56 H17      -1.6374   -4.4644   -5.4971   H         1 RES1   0.0000
    57 H18      -2.6907   -5.5080   -7.3349   H         1 RES1   0.0000
    58 H19      -3.9121   -4.5106   -8.1247   H         1 RES1   0.0000
    59 H20      -4.4082   -5.8008   -7.0491   H         1 RES1   0.0000
    60 H21      -5.6769   -3.4937   -6.3559   H         1 RES1   0.0000
    61 H22      -6.8540   -1.8552   -5.0984   H         1 RES1   0.0000
    62 H23      -5.8494   -0.5139   -4.5550   H         1 RES1   0.0000
    63 H24      -6.3401   -1.7594   -3.4176   H         1 RES1   0.0000
    64 H25      -3.6113   -1.3343   -3.3289   H         1 RES1   0.0000
    65 H26       1.7391    3.7742    5.5632   H         1 RES1   0.0000
    66 H27       3.3257    5.2441    6.4982   H         1 RES1   0.0000
    67 H28       4.2556    6.0364    5.2226   H         1 RES1   0.0000
    68 H29       5.0030    4.7919    6.2023   H         1 RES1   0.0000
    69 H30       5.4766    4.1854    3.6445   H         1 RES1   0.0000
    70 H31       6.0232    2.9776    1.7663   H         1 RES1   0.0000
    71 H32       4.6756    2.5346    0.7165   H         1 RES1   0.0000
    72 H33       5.4224    1.3239    1.7538   H         1 RES1   0.0000
    73 H34       2.6744    1.3389    2.1552   H         1 RES1   0.0000
    74 C33       2.6233   -4.7734    3.5166   C.3       1 RES1   0.0000
    75 C34       1.1336   -4.7122    3.1876   C.3       1 RES1   0.0000
    76 N5        0.6417   -3.3345    3.2029   N.am      1 RES1   0.0000
    77 C35       0.8353   -2.4736    2.1891   C.2       1 RES1   0.0000
    78 O3        0.3916   -1.3046    2.2380   O.2       1 RES1   0.0000
    79 C36       1.6268   -2.7812    0.9083   C.ar      1 RES1   0.0000
    80 C37       2.2535   -3.9721    0.5358   C.ar      1 RES1   0.0000
    81 C38       2.9961   -4.0310   -0.6340   C.ar      1 RES1   0.0000
    82 C39       3.0952   -2.9043   -1.4207   C.ar      1 RES1   0.0000
    83 C40       2.4282   -1.7404   -1.0244   C.ar      1 RES1   0.0000
    84 C41       2.4268   -0.5635   -1.9457   C.ar      1 RES1   0.0000
    85 C42       3.1254   -0.6009   -3.1598   C.ar      1 RES1   0.0000
    86 C43       3.0413    0.4764   -4.0169   C.ar      1 RES1   0.0000
    87 C44       2.2480    1.5619   -3.6740   C.ar      1 RES1   0.0000
    88 C45       1.5181    1.5137   -2.4913   C.ar      1 RES1   0.0000
    89 C46       0.5127    2.5160   -1.9369   C.2       1 RES1   0.0000
    90 O4        0.1400    2.2130   -0.7884   O.2       1 RES1   0.0000
    91 N6        0.0054    3.5854   -2.5834   N.am      1 RES1   0.0000
    92 C47       0.1783    3.7763   -4.0252   C.3       1 RES1   0.0000
    93 C48       1.3067    4.7419   -4.3851   C.3       1 RES1   0.0000
    94 C49      -0.8176    4.5718   -1.9202   C.ar      1 RES1   0.0000
    95 C50      -1.1834    5.7384   -2.6009   C.ar      1 RES1   0.0000
    96 C51      -1.9629    6.7194   -2.0067   C.ar      1 RES1   0.0000
    97 C52      -2.3346    7.9663   -2.7368   C.3       1 RES1   0.0000
    98 C53      -2.4062    6.5443   -0.7014   C.ar      1 RES1   0.0000
    99 C54      -2.0640    5.4052   -0.0021   C.ar      1 RES1   0.0000
   100 C55      -2.5176    5.1893    1.4083   C.3       1 RES1   0.0000
   101 C56      -1.2787    4.4318   -0.6106   C.ar      1 RES1   0.0000
   102 N7        1.6479    0.4761   -1.6413   N.ar      1 RES1   0.0000
   103 N8        1.7190   -1.6920    0.1121   N.ar      1 RES1   0.0000
   104 C57       0.0465   -2.9585    4.4662   C.ar      1 RES1   0.0000
   105 C58      -0.9601   -2.0021    4.6061   C.ar      1 RES1   0.0000
   106 C59      -1.4881   -1.7263    5.8627   C.ar      1 RES1   0.0000
   107 C60      -2.5689   -0.7274    6.1351   C.3       1 RES1   0.0000
   108 C61      -1.0380   -2.4169    6.9776   C.ar      1 RES1   0.0000
   109 C62      -0.0643   -3.3854    6.8648   C.ar      1 RES1   0.0000
   110 C63       0.3797   -4.1871    8.0409   C.3       1 RES1   0.0000
   111 C64       0.4760   -3.6296    5.6096   C.ar      1 RES1   0.0000
   112 H35       3.0025   -5.7866    3.4305   H         1 RES1   0.0000
   113 H36       2.7893   -4.4262    4.5306   H         1 RES1   0.0000
   114 H37       3.2013   -4.1308    2.8624   H         1 RES1   0.0000
   115 H38       0.5715   -5.2714    3.9345   H         1 RES1   0.0000
   116 H39       0.8905   -5.1781    2.2337   H         1 RES1   0.0000
   117 H40       2.2103   -4.8762    1.1043   H         1 RES1   0.0000
   118 H41       3.4990   -4.9407   -0.9313   H         1 RES1   0.0000
   119 H42       3.6650   -2.9295   -2.3334   H         1 RES1   0.0000
   120 H43       3.7296   -1.4431   -3.4521   H         1 RES1   0.0000
   121 H44       3.5868    0.4663   -4.9478   H         1 RES1   0.0000
   122 H45       2.2394    2.4126   -4.3238   H         1 RES1   0.0000
   123 H46      -0.7634    4.1621   -4.4192   H         1 RES1   0.0000
   124 H47       0.3257    2.8060   -4.4990   H         1 RES1   0.0000
   125 H48       1.1154    5.7222   -3.9602   H         1 RES1   0.0000
   126 H49       1.3909    4.8503   -5.4649   H         1 RES1   0.0000
   127 H50       2.2644    4.4020   -4.0029   H         1 RES1   0.0000
   128 H51      -0.8603    5.9498   -3.6023   H         1 RES1   0.0000
   129 H52      -1.9384    7.9855   -3.7470   H         1 RES1   0.0000
   130 H53      -1.9592    8.8339   -2.1964   H         1 RES1   0.0000
   131 H54      -3.4176    8.0654   -2.7913   H         1 RES1   0.0000
   132 H55      -3.0222    7.3030   -0.2462   H         1 RES1   0.0000
   133 H56      -3.1180    6.0265    1.7472   H         1 RES1   0.0000
   134 H57      -1.6566    5.0873    2.0654   H         1 RES1   0.0000
   135 H58      -3.1138    4.2818    1.4983   H         1 RES1   0.0000
   136 H59      -1.0088    3.5932    0.0053   H         1 RES1   0.0000
   137 H60      -1.3322   -1.4845    3.7396   H         1 RES1   0.0000
   138 H61      -2.9802   -0.2876    5.2392   H         1 RES1   0.0000
   139 H62      -2.1882    0.0650    6.7791   H         1 RES1   0.0000
   140 H63      -3.3797   -1.2139    6.6724   H         1 RES1   0.0000
   141 H64      -1.4842   -2.1994    7.9347   H         1 RES1   0.0000
   142 H65      -0.1103   -3.8438    8.9469   H         1 RES1   0.0000
   143 H66       1.4581   -4.1285    8.1735   H         1 RES1   0.0000
   144 H67       0.1241   -5.2351    7.8918   H         1 RES1   0.0000
   145 H68       1.2498   -4.3714    5.5842   H         1 RES1   0.0000
   146 O5       -2.2403    1.2552   -1.2076   O.3       1 RES1   0.0000
   147 H69      -2.5279    2.1470   -0.9565   H         1 RES1   0.0000
   148 H70      -2.2796    1.2290   -2.1714   H         1 RES1   0.0000
@<TRIPOS>BOND
     1     1     6    1
     2     1    18    1
     3     1    30    1
     4     1    31    1
     5     1    78    1
     6     1    90    1
     7     1   102    1
     8     1   103    1
     9     1   146    1
    10     2     3    1
    11     2    40    1
    12     2    41    1
    13     2    42    1
    14     3     4    1
    15     3    43    1
    16     3    44    1
    17     4     5    1
    18     4    32    1
    19     5     6    2
    20     5     7    1
    21     7     8    1
    22     7    31    2
    23     8     9    2
    24     8    45    1
    25     9    10    1
    26     9    46    1
    27    10    11    2
    28    10    47    1
    29    11    12    1
    30    11    31    1
    31    12    13    1
    32    12    30    2
    33    13    14    2
    34    13    48    1
    35    14    15    1
    36    14    49    1
    37    15    16    2
    38    15    50    1
    39    16    17    1
    40    16    30    1
    41    17    18    2
    42    17    19    1
    43    19    20    1
    44    19    22    1
    45    20    21    1
    46    20    51    1
    47    20    52    1
    48    21    53    1
    49    21    54    1
    50    21    55    1
    51    22    23    1
    52    22    29    2
    53    23    24    2
    54    23    56    1
    55    24    25    1
    56    24    26    1
    57    25    57    1
    58    25    58    1
    59    25    59    1
    60    26    27    2
    61    26    60    1
    62    27    28    1
    63    27    29    1
    64    28    61    1
    65    28    62    1
    66    28    63    1
    67    29    64    1
    68    32    33    1
    69    32    39    2
    70    33    34    2
    71    33    65    1
    72    34    35    1
    73    34    36    1
    74    35    66    1
    75    35    67    1
    76    35    68    1
    77    36    37    2
    78    36    69    1
    79    37    38    1
    80    37    39    1
    81    38    70    1
    82    38    71    1
    83    38    72    1
    84    39    73    1
    85    74    75    1
    86    74   112    1
    87    74   113    1
    88    74   114    1
    89    75    76    1
    90    75   115    1
    91    75   116    1
    92    76    77    1
    93    76   104    1
    94    77    78    2
    95    77    79    1
    96    79    80    1
    97    79   103    2
    98    80    81    2
    99    80   117    1
   100    81    82    1
   101    81   118    1
   102    82    83    2
   103    82   119    1
   104    83    84    1
   105    83   103    1
   106    84    85    1
   107    84   102    2
   108    85    86    2
   109    85   120    1
   110    86    87    1
   111    86   121    1
   112    87    88    2
   113    87   122    1
   114    88    89    1
   115    88   102    1
   116    89    90    2
   117    89    91    1
   118    91    92    1
   119    91    94    1
   120    92    93    1
   121    92   123    1
   122    92   124    1
   123    93   125    1
   124    93   126    1
   125    93   127    1
   126    94    95    1
   127    94   101    2
   128    95    96    2
   129    95   128    1
   130    96    97    1
   131    96    98    1
   132    97   129    1
   133    97   130    1
   134    97   131    1
   135    98    99    2
   136    98   132    1
   137    99   100    1
   138    99   101    1
   139   100   133    1
   140   100   134    1
   141   100   135    1
   142   101   136    1
   143   104   105    1
   144   104   111    2
   145   105   106    2
   146   105   137    1
   147   106   107    1
   148   106   108    1
   149   107   138    1
   150   107   139    1
   151   107   140    1
   152   108   109    2
   153   108   141    1
   154   109   110    1
   155   109   111    1
   156   110   142    1
   157   110   143    1
   158   110   144    1
   159   111   145    1
   160   146   147    1
   161   146   148    1
@<TRIPOS>SUBSTRUCTURE
     1 RES1      148 GROUP             0 ****  ****    0  
