@<TRIPOS>MOLECULE
am_c3_9H2O_c0_0_nunpairedes_0_charge_3 Charge: 3 Unpaired_Electrons: 2 XTB_Unpaired_Electrons: 0 XTB_Charge: 3
   361   369     1     0     0
SMALL
NoCharges
****
Generated from Architector

@<TRIPOS>ATOM
     1 Pr1      -0.1920    0.0971    0.1741   Pr        1 RES1   0.0000
     2 C1       -3.6372   -8.4474   -0.7812   C.3       1 RES1   0.0000
     3 C2       -2.6074   -7.3370   -0.9122   C.3       1 RES1   0.0000
     4 C3       -1.3671   -7.5906   -0.0509   C.3       1 RES1   0.0000
     5 C4       -1.5962   -7.3766    1.4474   C.3       1 RES1   0.0000
     6 C5       -2.0441   -5.9549    1.7563   C.3       1 RES1   0.0000
     7 C6       -2.2379   -5.6836    3.2398   C.3       1 RES1   0.0000
     8 C7       -2.8570   -4.3042    3.4488   C.3       1 RES1   0.0000
     9 C8       -1.8778   -3.2020    3.0621   C.3       1 RES1   0.0000
    10 P1       -2.5672   -1.5797    2.5802   P.3       1 RES1   0.0000
    11 O1       -1.4344   -0.6611    2.2775   O.2       1 RES1   0.0000
    12 C9       -3.7250   -1.0050    3.8929   C.3       1 RES1   0.0000
    13 C10      -2.9496   -0.4038    5.0581   C.3       1 RES1   0.0000
    14 C11      -3.7613    0.6229    5.8515   C.3       1 RES1   0.0000
    15 C12      -4.6654   -0.0359    6.8910   C.3       1 RES1   0.0000
    16 C13      -5.3552    0.9631    7.8276   C.3       1 RES1   0.0000
    17 C14      -6.6678    1.5703    7.3260   C.3       1 RES1   0.0000
    18 C15      -6.5925    2.6959    6.2969   C.3       1 RES1   0.0000
    19 C16      -5.9500    3.9660    6.8414   C.3       1 RES1   0.0000
    20 C17      -3.6409   -1.7160    1.0573   C.3       1 RES1   0.0000
    21 C18      -4.4459   -0.4861    0.8335   C.ar      1 RES1   0.0000
    22 C19      -5.7910   -0.4360    1.1358   C.ar      1 RES1   0.0000
    23 C20      -6.5404    0.6655    0.7607   C.ar      1 RES1   0.0000
    24 C21      -5.9069    1.6514    0.0258   C.ar      1 RES1   0.0000
    25 C22      -4.5410    1.6179   -0.2217   C.ar      1 RES1   0.0000
    26 C23      -3.9868    2.6448   -1.1766   C.3       1 RES1   0.0000
    27 P2       -2.2163    3.0753   -1.6769   P.3       1 RES1   0.0000
    28 O2       -1.2445    1.9477   -1.6261   O.2       1 RES1   0.0000
    29 C24      -2.5164    3.6005   -3.4387   C.3       1 RES1   0.0000
    30 C25      -1.9727    2.6151   -4.4727   C.3       1 RES1   0.0000
    31 C26      -2.7707    2.6197   -5.7763   C.3       1 RES1   0.0000
    32 C27      -4.1891    2.0533   -5.6697   C.3       1 RES1   0.0000
    33 C28      -4.2562    0.6045   -5.1804   C.3       1 RES1   0.0000
    34 C29      -5.6878    0.1114   -4.9301   C.3       1 RES1   0.0000
    35 C30      -6.5661    0.0896   -6.1809   C.3       1 RES1   0.0000
    36 C31      -7.9545   -0.4768   -5.8955   C.3       1 RES1   0.0000
    37 C32      -1.5444    4.7106   -1.0256   C.3       1 RES1   0.0000
    38 C33      -1.6846    5.2390    0.3946   C.3       1 RES1   0.0000
    39 C34      -0.8964    6.5417    0.6021   C.3       1 RES1   0.0000
    40 C35      -0.8404    6.9709    2.0820   C.3       1 RES1   0.0000
    41 C36       0.4294    7.7629    2.4294   C.3       1 RES1   0.0000
    42 C37       0.8760    7.7137    3.9047   C.3       1 RES1   0.0000
    43 C38       2.3805    7.4569    4.0286   C.3       1 RES1   0.0000
    44 C39       2.8885    7.6230    5.4546   C.3       1 RES1   0.0000
    45 N1       -3.8188    0.5726    0.2445   N.ar      1 RES1   0.0000
    46 O3       -2.5376    0.5557    0.1231   O.co2     1 RES1   0.0000
    47 H1       -4.5047   -8.2318   -1.3963   H         1 RES1   0.0000
    48 H2       -3.9622   -8.5577    0.2479   H         1 RES1   0.0000
    49 H3       -3.2153   -9.3919   -1.1058   H         1 RES1   0.0000
    50 H4       -3.0704   -6.3890   -0.6300   H         1 RES1   0.0000
    51 H5       -2.3064   -7.2495   -1.9599   H         1 RES1   0.0000
    52 H6       -0.5563   -6.9287   -0.3723   H         1 RES1   0.0000
    53 H7       -1.0308   -8.6158   -0.2134   H         1 RES1   0.0000
    54 H8       -0.6620   -7.5750    1.9758   H         1 RES1   0.0000
    55 H9       -2.3393   -8.0815    1.8175   H         1 RES1   0.0000
    56 H10      -2.9994   -5.7644    1.2704   H         1 RES1   0.0000
    57 H11      -1.3072   -5.2657    1.3380   H         1 RES1   0.0000
    58 H12      -1.2897   -5.7569    3.7698   H         1 RES1   0.0000
    59 H13      -2.9004   -6.4419    3.6518   H         1 RES1   0.0000
    60 H14      -3.1371   -4.1838    4.4926   H         1 RES1   0.0000
    61 H15      -3.7655   -4.2394    2.8483   H         1 RES1   0.0000
    62 H16      -1.2244   -3.5018    2.2408   H         1 RES1   0.0000
    63 H17      -1.2032   -2.9726    3.8925   H         1 RES1   0.0000
    64 H18      -4.3902   -0.2608    3.4486   H         1 RES1   0.0000
    65 H19      -4.3324   -1.8498    4.2161   H         1 RES1   0.0000
    66 H20      -2.0466    0.0565    4.6527   H         1 RES1   0.0000
    67 H21      -2.6320   -1.2042    5.7251   H         1 RES1   0.0000
    68 H22      -4.3567    1.2318    5.1747   H         1 RES1   0.0000
    69 H23      -3.0903    1.2978    6.3841   H         1 RES1   0.0000
    70 H24      -4.0423   -0.6920    7.5089   H         1 RES1   0.0000
    71 H25      -5.4220   -0.6556    6.4053   H         1 RES1   0.0000
    72 H26      -4.6413    1.7440    8.0926   H         1 RES1   0.0000
    73 H27      -5.5945    0.4245    8.7471   H         1 RES1   0.0000
    74 H28      -7.1945    1.9673    8.1927   H         1 RES1   0.0000
    75 H29      -7.2801    0.7644    6.9199   H         1 RES1   0.0000
    76 H30      -7.6156    2.9292    5.9996   H         1 RES1   0.0000
    77 H31      -6.0732    2.3632    5.3982   H         1 RES1   0.0000
    78 H32      -6.5254    4.3453    7.6819   H         1 RES1   0.0000
    79 H33      -5.9175    4.7430    6.0791   H         1 RES1   0.0000
    80 H34      -4.9344    3.7839    7.1846   H         1 RES1   0.0000
    81 H35      -4.3008   -2.5775    1.1361   H         1 RES1   0.0000
    82 H36      -2.9368   -1.8154    0.2196   H         1 RES1   0.0000
    83 H37      -6.2380   -1.2655    1.6576   H         1 RES1   0.0000
    84 H38      -7.5939    0.7153    0.9717   H         1 RES1   0.0000
    85 H39      -6.4816    2.4739   -0.3639   H         1 RES1   0.0000
    86 H40      -4.4790    3.6005   -0.9790   H         1 RES1   0.0000
    87 H41      -4.3520    2.3252   -2.1612   H         1 RES1   0.0000
    88 H42      -2.0285    4.5625   -3.5836   H         1 RES1   0.0000
    89 H43      -3.5824    3.7729   -3.5913   H         1 RES1   0.0000
    90 H44      -1.9529    1.6096   -4.0538   H         1 RES1   0.0000
    91 H45      -0.9420    2.8897   -4.6958   H         1 RES1   0.0000
    92 H46      -2.2173    2.0475   -6.5203   H         1 RES1   0.0000
    93 H47      -2.8411    3.6418   -6.1514   H         1 RES1   0.0000
    94 H48      -4.6387    2.1100   -6.6612   H         1 RES1   0.0000
    95 H49      -4.7906    2.6808   -5.0081   H         1 RES1   0.0000
    96 H50      -3.6992    0.5069   -4.2414   H         1 RES1   0.0000
    97 H51      -3.7806   -0.0459   -5.9204   H         1 RES1   0.0000
    98 H52      -6.1678    0.7360   -4.1691   H         1 RES1   0.0000
    99 H53      -5.6351   -0.9064   -4.5296   H         1 RES1   0.0000
   100 H54      -6.0798   -0.5159   -6.9485   H         1 RES1   0.0000
   101 H55      -6.6758    1.1013   -6.5719   H         1 RES1   0.0000
   102 H56      -7.8922   -1.5050   -5.5405   H         1 RES1   0.0000
   103 H57      -8.5557   -0.4659   -6.8020   H         1 RES1   0.0000
   104 H58      -8.4681    0.1171   -5.1397   H         1 RES1   0.0000
   105 H59      -1.9692    5.4607   -1.6908   H         1 RES1   0.0000
   106 H60      -0.4841    4.6004   -1.2723   H         1 RES1   0.0000
   107 H61      -1.3040    4.5125    1.1036   H         1 RES1   0.0000
   108 H62      -2.7340    5.4239    0.6098   H         1 RES1   0.0000
   109 H63      -1.3302    7.3375   -0.0041   H         1 RES1   0.0000
   110 H64       0.1232    6.3785    0.2429   H         1 RES1   0.0000
   111 H65      -0.8756    6.0664    2.6942   H         1 RES1   0.0000
   112 H66      -1.7147    7.5698    2.3344   H         1 RES1   0.0000
   113 H67       0.3015    8.8016    2.1279   H         1 RES1   0.0000
   114 H68       1.2440    7.3606    1.8265   H         1 RES1   0.0000
   115 H69       0.3323    6.9430    4.4567   H         1 RES1   0.0000
   116 H70       0.6687    8.6681    4.3843   H         1 RES1   0.0000
   117 H71       2.9050    8.1653    3.3848   H         1 RES1   0.0000
   118 H72       2.6233    6.4506    3.6694   H         1 RES1   0.0000
   119 H73       2.7962    8.6631    5.7550   H         1 RES1   0.0000
   120 H74       3.9347    7.3400    5.5214   H         1 RES1   0.0000
   121 H75       2.3071    7.0171    6.1447   H         1 RES1   0.0000
   122 C40      -6.5843   -6.1664    1.1722   C.3       1 RES1   0.0000
   123 C41      -6.0808   -4.7471    0.9316   C.3       1 RES1   0.0000
   124 C42      -6.8836   -4.0135   -0.1497   C.3       1 RES1   0.0000
   125 C43      -6.4987   -4.4035   -1.5799   C.3       1 RES1   0.0000
   126 C44      -5.0804   -3.9651   -1.9546   C.3       1 RES1   0.0000
   127 C45      -4.8020   -4.1194   -3.4500   C.3       1 RES1   0.0000
   128 C46      -3.3365   -3.8692   -3.8224   C.3       1 RES1   0.0000
   129 C47      -2.8582   -2.4681   -3.4189   C.3       1 RES1   0.0000
   130 P3       -1.3012   -2.3432   -2.4568   P.3       1 RES1   0.0000
   131 O4       -1.2250   -1.0573   -1.6948   O.2       1 RES1   0.0000
   132 C48       0.0756   -2.3944   -3.6657   C.3       1 RES1   0.0000
   133 C49       0.3145   -3.5652   -4.6129   C.3       1 RES1   0.0000
   134 C50       1.6901   -3.3912   -5.2671   C.3       1 RES1   0.0000
   135 C51       2.1788   -4.6342   -6.0065   C.3       1 RES1   0.0000
   136 C52       3.5156   -4.4162   -6.7318   C.3       1 RES1   0.0000
   137 C53       4.7748   -4.7251   -5.9144   C.3       1 RES1   0.0000
   138 C54       5.2397   -3.6328   -4.9477   C.3       1 RES1   0.0000
   139 C55       5.7416   -2.3856   -5.6691   C.3       1 RES1   0.0000
   140 C56      -1.1654   -3.7524   -1.2228   C.3       1 RES1   0.0000
   141 C57       0.2947   -3.8802   -0.9797   C.ar      1 RES1   0.0000
   142 C58       1.0305   -4.8344   -1.6575   C.ar      1 RES1   0.0000
   143 C59       2.4057   -4.7403   -1.6733   C.ar      1 RES1   0.0000
   144 C60       2.9922   -3.7195   -0.9508   C.ar      1 RES1   0.0000
   145 C61       2.2611   -2.8745   -0.1265   C.ar      1 RES1   0.0000
   146 C62       2.8301   -2.0691    1.0018   C.3       1 RES1   0.0000
   147 P4        3.4591   -0.2612    1.1500   P.3       1 RES1   0.0000
   148 O5        2.4039    0.5584    0.4529   O.2       1 RES1   0.0000
   149 C63       3.3953   -0.0349    3.0017   C.3       1 RES1   0.0000
   150 C64       2.7763   -1.0668    3.9354   C.3       1 RES1   0.0000
   151 C65       3.1684   -0.7317    5.3816   C.3       1 RES1   0.0000
   152 C66       2.8832   -1.8665    6.3630   C.3       1 RES1   0.0000
   153 C67       1.3958   -2.2324    6.4700   C.3       1 RES1   0.0000
   154 C68       1.1587   -3.7317    6.2989   C.3       1 RES1   0.0000
   155 C69       1.8339   -4.5633    7.3875   C.3       1 RES1   0.0000
   156 C70       1.6897   -6.0535    7.1134   C.3       1 RES1   0.0000
   157 C71       5.0754    0.7525    1.0533   C.3       1 RES1   0.0000
   158 C72       5.9618    1.3796   -0.0263   C.3       1 RES1   0.0000
   159 C73       5.3357    2.3759   -0.9887   C.3       1 RES1   0.0000
   160 C74       6.4172    2.9889   -1.8976   C.3       1 RES1   0.0000
   161 C75       6.1036    4.4174   -2.3633   C.3       1 RES1   0.0000
   162 C76       5.1959    4.5315   -3.5923   C.3       1 RES1   0.0000
   163 C77       4.5482    5.9231   -3.6744   C.3       1 RES1   0.0000
   164 C78       3.1169    5.9273   -4.1987   C.3       1 RES1   0.0000
   165 N2        0.9011   -2.9562   -0.1962   N.ar      1 RES1   0.0000
   166 O6        0.1595   -2.1622    0.5233   O.co2     1 RES1   0.0000
   167 H76      -5.9920   -6.6587    1.9416   H         1 RES1   0.0000
   168 H77      -6.5277   -6.7578    0.2625   H         1 RES1   0.0000
   169 H78      -7.6201   -6.1415    1.5025   H         1 RES1   0.0000
   170 H79      -5.0257   -4.7804    0.6411   H         1 RES1   0.0000
   171 H80      -6.1538   -4.1940    1.8744   H         1 RES1   0.0000
   172 H81      -6.7551   -2.9303   -0.0419   H         1 RES1   0.0000
   173 H82      -7.9426   -4.2321   -0.0021   H         1 RES1   0.0000
   174 H83      -7.2058   -3.9269   -2.2617   H         1 RES1   0.0000
   175 H84      -6.5922   -5.4822   -1.7101   H         1 RES1   0.0000
   176 H85      -4.3517   -4.5615   -1.3988   H         1 RES1   0.0000
   177 H86      -4.9557   -2.9179   -1.6591   H         1 RES1   0.0000
   178 H87      -5.4429   -3.4395   -4.0158   H         1 RES1   0.0000
   179 H88      -5.0655   -5.1337   -3.7519   H         1 RES1   0.0000
   180 H89      -3.2386   -3.9878   -4.9010   H         1 RES1   0.0000
   181 H90      -2.7163   -4.6437   -3.3663   H         1 RES1   0.0000
   182 H91      -3.6190   -1.9442   -2.8398   H         1 RES1   0.0000
   183 H92      -2.6652   -1.8552   -4.3035   H         1 RES1   0.0000
   184 H93       0.9761   -2.2158   -3.0736   H         1 RES1   0.0000
   185 H94      -0.1081   -1.4772   -4.2379   H         1 RES1   0.0000
   186 H95      -0.4587   -3.6097   -5.3793   H         1 RES1   0.0000
   187 H96       0.2978   -4.5115   -4.0748   H         1 RES1   0.0000
   188 H97       2.4108   -3.1331   -4.4874   H         1 RES1   0.0000
   189 H98       1.6522   -2.5646   -5.9789   H         1 RES1   0.0000
   190 H99       1.4265   -4.9176   -6.7451   H         1 RES1   0.0000
   191 H100      2.2764   -5.4645   -5.3042   H         1 RES1   0.0000
   192 H101      3.5611   -3.3919   -7.1031   H         1 RES1   0.0000
   193 H102      3.5346   -5.0729   -7.6017   H         1 RES1   0.0000
   194 H103      5.5920   -4.9052   -6.6152   H         1 RES1   0.0000
   195 H104      4.6208   -5.6529   -5.3581   H         1 RES1   0.0000
   196 H105      6.0594   -4.0432   -4.3524   H         1 RES1   0.0000
   197 H106      4.4340   -3.3642   -4.2575   H         1 RES1   0.0000
   198 H107      6.5129   -2.6536   -6.3866   H         1 RES1   0.0000
   199 H108      6.1702   -1.6739   -4.9640   H         1 RES1   0.0000
   200 H109      4.9375   -1.8920   -6.2092   H         1 RES1   0.0000
   201 H110     -1.5601   -4.6917   -1.5999   H         1 RES1   0.0000
   202 H111     -1.7213   -3.4566   -0.3307   H         1 RES1   0.0000
   203 H112      0.5254   -5.6317   -2.1756   H         1 RES1   0.0000
   204 H113      3.0132   -5.4312   -2.2310   H         1 RES1   0.0000
   205 H114      4.0503   -3.6011   -1.0438   H         1 RES1   0.0000
   206 H115      3.5486   -2.6961    1.5173   H         1 RES1   0.0000
   207 H116      1.9729   -1.8903    1.6729   H         1 RES1   0.0000
   208 H117      2.8797    0.9196    3.1359   H         1 RES1   0.0000
   209 H118      4.4266    0.1105    3.3282   H         1 RES1   0.0000
   210 H119      3.1603   -2.0635    3.7208   H         1 RES1   0.0000
   211 H120      1.6918   -1.0725    3.8209   H         1 RES1   0.0000
   212 H121      2.6533    0.1707    5.7119   H         1 RES1   0.0000
   213 H122      4.2420   -0.5241    5.4124   H         1 RES1   0.0000
   214 H123      3.2682   -1.5745    7.3409   H         1 RES1   0.0000
   215 H124      3.4529   -2.7399    6.0433   H         1 RES1   0.0000
   216 H125      0.8294   -1.6972    5.7047   H         1 RES1   0.0000
   217 H126      1.0054   -1.9179    7.4376   H         1 RES1   0.0000
   218 H127      1.5358   -4.0471    5.3213   H         1 RES1   0.0000
   219 H128      0.0845   -3.9324    6.3133   H         1 RES1   0.0000
   220 H129      1.3923   -4.3190    8.3547   H         1 RES1   0.0000
   221 H130      2.8944   -4.3144    7.4396   H         1 RES1   0.0000
   222 H131      0.6414   -6.3405    7.1015   H         1 RES1   0.0000
   223 H132      2.1940   -6.6330    7.8804   H         1 RES1   0.0000
   224 H133      2.1289   -6.3061    6.1494   H         1 RES1   0.0000
   225 H134      5.7445    0.2345    1.7355   H         1 RES1   0.0000
   226 H135      4.6417    1.6009    1.5954   H         1 RES1   0.0000
   227 H136      6.5340    0.6629   -0.6021   H         1 RES1   0.0000
   228 H137      6.7032    1.9287    0.5633   H         1 RES1   0.0000
   229 H138      4.8809    3.1721   -0.4019   H         1 RES1   0.0000
   230 H139      4.5538    1.8878   -1.5735   H         1 RES1   0.0000
   231 H140      6.6134    2.3511   -2.7613   H         1 RES1   0.0000
   232 H141      7.3454    3.0405   -1.3243   H         1 RES1   0.0000
   233 H142      7.0403    4.9246   -2.5959   H         1 RES1   0.0000
   234 H143      5.6477    4.9452   -1.5230   H         1 RES1   0.0000
   235 H144      5.7844    4.3424   -4.4890   H         1 RES1   0.0000
   236 H145      4.4318    3.7513   -3.5619   H         1 RES1   0.0000
   237 H146      5.1567    6.5562   -4.3173   H         1 RES1   0.0000
   238 H147      4.5680    6.3743   -2.6823   H         1 RES1   0.0000
   239 H148      3.1087    5.6789   -5.2542   H         1 RES1   0.0000
   240 H149      2.6794    6.9153   -4.0735   H         1 RES1   0.0000
   241 H150      2.4848    5.2194   -3.6628   H         1 RES1   0.0000
   242 C79      -5.8433    7.4876    1.4368   C.3       1 RES1   0.0000
   243 C80      -5.9033    6.2980    0.4879   C.3       1 RES1   0.0000
   244 C81      -6.6676    5.1111    1.0795   C.3       1 RES1   0.0000
   245 C82      -6.0450    4.4775    2.3313   C.3       1 RES1   0.0000
   246 C83      -4.5406    4.1941    2.2400   C.3       1 RES1   0.0000
   247 C84      -4.0854    3.2530    3.3561   C.3       1 RES1   0.0000
   248 C85      -2.5701    3.2210    3.6140   C.3       1 RES1   0.0000
   249 C86      -1.7950    2.3799    2.6025   C.3       1 RES1   0.0000
   250 P5        0.0087    2.1125    2.9879   P.3       1 RES1   0.0000
   251 O7        0.5897    0.8443    2.4407   O.2       1 RES1   0.0000
   252 C87       0.1875    1.9411    4.8218   C.3       1 RES1   0.0000
   253 C88       0.4962    3.1351    5.7329   C.3       1 RES1   0.0000
   254 C89       1.7060    2.8295    6.6225   C.3       1 RES1   0.0000
   255 C90       1.9276    3.9210    7.6660   C.3       1 RES1   0.0000
   256 C91       3.0695    3.6196    8.6434   C.3       1 RES1   0.0000
   257 C92       4.4531    4.1260    8.2275   C.3       1 RES1   0.0000
   258 C93       5.1901    3.2741    7.1916   C.3       1 RES1   0.0000
   259 C94       5.6632    1.9373    7.7504   C.3       1 RES1   0.0000
   260 C95       1.0872    3.6033    2.6524   C.3       1 RES1   0.0000
   261 C96       1.6232    3.8496    1.2799   C.ar      1 RES1   0.0000
   262 C97       2.4454    4.9247    0.9948   C.ar      1 RES1   0.0000
   263 C98       2.9394    5.0814   -0.2876   C.ar      1 RES1   0.0000
   264 C99       2.7693    4.0349   -1.1747   C.ar      1 RES1   0.0000
   265 C100      1.9827    2.9398   -0.8678   C.ar      1 RES1   0.0000
   266 C101      1.8505    1.8143   -1.8196   C.3       1 RES1   0.0000
   267 P6        2.8325    0.0790   -1.7837   P.3       1 RES1   0.0000
   268 O8        1.6807   -0.8615   -1.6445   O.2       1 RES1   0.0000
   269 C102      3.4029    0.2540   -3.5767   C.3       1 RES1   0.0000
   270 C103      2.3284    0.2345   -4.6554   C.3       1 RES1   0.0000
   271 C104      2.9495    0.6558   -5.9982   C.3       1 RES1   0.0000
   272 C105      2.7964    2.1488   -6.2866   C.3       1 RES1   0.0000
   273 C106      1.3901    2.4629   -6.7985   C.3       1 RES1   0.0000
   274 C107      1.0283    3.9475   -6.7519   C.3       1 RES1   0.0000
   275 C108      1.9164    4.8232   -7.6354   C.3       1 RES1   0.0000
   276 C109      1.4000    6.2566   -7.7047   C.3       1 RES1   0.0000
   277 C110      4.5888   -1.0400   -1.4370   C.3       1 RES1   0.0000
   278 C111      5.7669   -1.7272   -0.6270   C.3       1 RES1   0.0000
   279 C112      5.8440   -2.9092    0.3730   C.3       1 RES1   0.0000
   280 C113      6.0304   -2.5928    1.8601   C.3       1 RES1   0.0000
   281 C114      6.0743   -3.8798    2.7085   C.3       1 RES1   0.0000
   282 C115      4.7224   -4.4959    3.1074   C.3       1 RES1   0.0000
   283 C116      4.0695   -5.4551    2.1023   C.3       1 RES1   0.0000
   284 C117      2.5894   -5.6816    2.4088   C.3       1 RES1   0.0000
   285 N3        1.2724    2.9974    0.2918   N.ar      1 RES1   0.0000
   286 O9        0.2090    2.2906    0.4791   O.co2     1 RES1   0.0000
   287 H151     -5.4155    8.3496    0.9331   H         1 RES1   0.0000
   288 H152     -5.2429    7.2607    2.3136   H         1 RES1   0.0000
   289 H153     -6.8451    7.7497    1.7643   H         1 RES1   0.0000
   290 H154     -4.8915    5.9872    0.2074   H         1 RES1   0.0000
   291 H155     -6.4135    6.6043   -0.4299   H         1 RES1   0.0000
   292 H156     -6.7904    4.3540    0.2990   H         1 RES1   0.0000
   293 H157     -7.6684    5.4541    1.3479   H         1 RES1   0.0000
   294 H158     -6.5807    3.5462    2.5369   H         1 RES1   0.0000
   295 H159     -6.2149    5.1424    3.1789   H         1 RES1   0.0000
   296 H160     -4.0027    5.1377    2.3410   H         1 RES1   0.0000
   297 H161     -4.2969    3.7528    1.2721   H         1 RES1   0.0000
   298 H162     -4.4422    2.2431    3.1296   H         1 RES1   0.0000
   299 H163     -4.5706    3.5752    4.2793   H         1 RES1   0.0000
   300 H164     -2.4173    2.8014    4.6080   H         1 RES1   0.0000
   301 H165     -2.1939    4.2444    3.6357   H         1 RES1   0.0000
   302 H166     -1.9020    2.7634    1.5856   H         1 RES1   0.0000
   303 H167     -2.1920    1.3623    2.5985   H         1 RES1   0.0000
   304 H168      0.9996    1.2160    4.8891   H         1 RES1   0.0000
   305 H169     -0.6892    1.4088    5.1852   H         1 RES1   0.0000
   306 H170     -0.3622    3.3576    6.3693   H         1 RES1   0.0000
   307 H171      0.7130    4.0435    5.1691   H         1 RES1   0.0000
   308 H172      2.5902    2.7330    5.9893   H         1 RES1   0.0000
   309 H173      1.5599    1.8751    7.1351   H         1 RES1   0.0000
   310 H174      1.0024    4.0262    8.2371   H         1 RES1   0.0000
   311 H175      2.1103    4.8687    7.1568   H         1 RES1   0.0000
   312 H176      3.1120    2.5440    8.8136   H         1 RES1   0.0000
   313 H177      2.8263    4.0897    9.5971   H         1 RES1   0.0000
   314 H178      5.0708    4.1637    9.1257   H         1 RES1   0.0000
   315 H179      4.3596    5.1468    7.8491   H         1 RES1   0.0000
   316 H180      6.0585    3.8393    6.8470   H         1 RES1   0.0000
   317 H181      4.5569    3.1046    6.3185   H         1 RES1   0.0000
   318 H182      6.3878    2.0967    8.5433   H         1 RES1   0.0000
   319 H183      6.1390    1.3446    6.9722   H         1 RES1   0.0000
   320 H184      4.8352    1.3651    8.1602   H         1 RES1   0.0000
   321 H185      1.9498    3.4343    3.3072   H         1 RES1   0.0000
   322 H186      0.5960    4.5069    3.0159   H         1 RES1   0.0000
   323 H187      2.6857    5.6439    1.7611   H         1 RES1   0.0000
   324 H188      3.4915    5.9617   -0.5717   H         1 RES1   0.0000
   325 H189      3.2532    4.0719   -2.1299   H         1 RES1   0.0000
   326 H190      2.0687    2.1915   -2.8174   H         1 RES1   0.0000
   327 H191      0.8260    1.4147   -1.8044   H         1 RES1   0.0000
   328 H192      4.1003   -0.5420   -3.8280   H         1 RES1   0.0000
   329 H193      3.9487    1.1961   -3.6378   H         1 RES1   0.0000
   330 H194      1.4801    0.8755   -4.4069   H         1 RES1   0.0000
   331 H195      1.9515   -0.7798   -4.7344   H         1 RES1   0.0000
   332 H196      2.4737    0.1030   -6.8092   H         1 RES1   0.0000
   333 H197      4.0078    0.3873   -6.0018   H         1 RES1   0.0000
   334 H198      3.5267    2.4380   -7.0418   H         1 RES1   0.0000
   335 H199      3.0008    2.7308   -5.3836   H         1 RES1   0.0000
   336 H200      0.6588    1.9098   -6.2013   H         1 RES1   0.0000
   337 H201      1.3037    2.1068   -7.8268   H         1 RES1   0.0000
   338 H202      1.0781    4.3082   -5.7195   H         1 RES1   0.0000
   339 H203     -0.0071    4.0584   -7.0843   H         1 RES1   0.0000
   340 H204      1.9447    4.4022   -8.6414   H         1 RES1   0.0000
   341 H205      2.9403    4.8219   -7.2542   H         1 RES1   0.0000
   342 H206      0.3682    6.2686   -8.0481   H         1 RES1   0.0000
   343 H207      1.9977    6.8410   -8.3989   H         1 RES1   0.0000
   344 H208      1.4402    6.7366   -6.7287   H         1 RES1   0.0000
   345 H209      5.1700   -0.3987   -2.0958   H         1 RES1   0.0000
   346 H210      4.1317   -1.8143   -2.0565   H         1 RES1   0.0000
   347 H211      6.4091   -0.9771   -0.1852   H         1 RES1   0.0000
   348 H212      6.3234   -2.0912   -1.4980   H         1 RES1   0.0000
   349 H213      6.7513   -3.4459    0.0804   H         1 RES1   0.0000
   350 H214      5.0499   -3.6331    0.2870   H         1 RES1   0.0000
   351 H215      5.2496   -1.9299    2.2445   H         1 RES1   0.0000
   352 H216      6.9840   -2.0747    1.9917   H         1 RES1   0.0000
   353 H217      6.5955   -3.6339    3.6343   H         1 RES1   0.0000
   354 H218      6.6747   -4.6335    2.1947   H         1 RES1   0.0000
   355 H219      4.0116   -3.7035    3.3544   H         1 RES1   0.0000
   356 H220      4.8780   -5.0597    4.0278   H         1 RES1   0.0000
   357 H221      4.5841   -6.4160    2.1422   H         1 RES1   0.0000
   358 H222      4.1565   -5.0896    1.0774   H         1 RES1   0.0000
   359 H223      2.4665   -6.0698    3.4168   H         1 RES1   0.0000
   360 H224      2.1672   -6.4062    1.7142   H         1 RES1   0.0000
   361 H225      2.0237   -4.7517    2.3263   H         1 RES1   0.0000
@<TRIPOS>BOND
     1     1    11    1
     2     1    28    1
     3     1    46    1
     4     1   131    1
     5     1   148    1
     6     1   166    1
     7     1   251    1
     8     1   268    1
     9     1   286    1
    10     2     3    1
    11     2    47    1
    12     2    48    1
    13     2    49    1
    14     3     4    1
    15     3    50    1
    16     3    51    1
    17     4     5    1
    18     4    52    1
    19     4    53    1
    20     5     6    1
    21     5    54    1
    22     5    55    1
    23     6     7    1
    24     6    56    1
    25     6    57    1
    26     7     8    1
    27     7    58    1
    28     7    59    1
    29     8     9    1
    30     8    60    1
    31     8    61    1
    32     9    10    1
    33     9    62    1
    34     9    63    1
    35    10    11    2
    36    10    12    1
    37    10    20    1
    38    12    13    1
    39    12    64    1
    40    12    65    1
    41    13    14    1
    42    13    66    1
    43    13    67    1
    44    14    15    1
    45    14    68    1
    46    14    69    1
    47    15    16    1
    48    15    70    1
    49    15    71    1
    50    16    17    1
    51    16    72    1
    52    16    73    1
    53    17    18    1
    54    17    74    1
    55    17    75    1
    56    18    19    1
    57    18    76    1
    58    18    77    1
    59    19    78    1
    60    19    79    1
    61    19    80    1
    62    20    21    1
    63    20    81    1
    64    20    82    1
    65    21    22    1
    66    21    45    2
    67    22    23    2
    68    22    83    1
    69    23    24    1
    70    23    84    1
    71    24    25    2
    72    24    85    1
    73    25    26    1
    74    25    45    1
    75    26    27    1
    76    26    86    1
    77    26    87    1
    78    27    28    2
    79    27    29    1
    80    27    37    1
    81    29    30    1
    82    29    88    1
    83    29    89    1
    84    30    31    1
    85    30    90    1
    86    30    91    1
    87    31    32    1
    88    31    92    1
    89    31    93    1
    90    32    33    1
    91    32    94    1
    92    32    95    1
    93    33    34    1
    94    33    96    1
    95    33    97    1
    96    34    35    1
    97    34    98    1
    98    34    99    1
    99    35    36    1
   100    35   100    1
   101    35   101    1
   102    36   102    1
   103    36   103    1
   104    36   104    1
   105    37    38    1
   106    37   105    1
   107    37   106    1
   108    38    39    1
   109    38   107    1
   110    38   108    1
   111    39    40    1
   112    39   109    1
   113    39   110    1
   114    40    41    1
   115    40   111    1
   116    40   112    1
   117    41    42    1
   118    41   113    1
   119    41   114    1
   120    42    43    1
   121    42   115    1
   122    42   116    1
   123    43    44    1
   124    43   117    1
   125    43   118    1
   126    44   119    1
   127    44   120    1
   128    44   121    1
   129    45    46    1
   130   122   123    1
   131   122   167    1
   132   122   168    1
   133   122   169    1
   134   123   124    1
   135   123   170    1
   136   123   171    1
   137   124   125    1
   138   124   172    1
   139   124   173    1
   140   125   126    1
   141   125   174    1
   142   125   175    1
   143   126   127    1
   144   126   176    1
   145   126   177    1
   146   127   128    1
   147   127   178    1
   148   127   179    1
   149   128   129    1
   150   128   180    1
   151   128   181    1
   152   129   130    1
   153   129   182    1
   154   129   183    1
   155   130   131    2
   156   130   132    1
   157   130   140    1
   158   132   133    1
   159   132   184    1
   160   132   185    1
   161   133   134    1
   162   133   186    1
   163   133   187    1
   164   134   135    1
   165   134   188    1
   166   134   189    1
   167   135   136    1
   168   135   190    1
   169   135   191    1
   170   136   137    1
   171   136   192    1
   172   136   193    1
   173   137   138    1
   174   137   194    1
   175   137   195    1
   176   138   139    1
   177   138   196    1
   178   138   197    1
   179   139   198    1
   180   139   199    1
   181   139   200    1
   182   140   141    1
   183   140   201    1
   184   140   202    1
   185   141   142    1
   186   141   165    2
   187   142   143    2
   188   142   203    1
   189   143   144    1
   190   143   204    1
   191   144   145    2
   192   144   205    1
   193   145   146    1
   194   145   165    1
   195   146   147    1
   196   146   206    1
   197   146   207    1
   198   147   148    2
   199   147   149    1
   200   147   157    1
   201   149   150    1
   202   149   208    1
   203   149   209    1
   204   150   151    1
   205   150   210    1
   206   150   211    1
   207   151   152    1
   208   151   212    1
   209   151   213    1
   210   152   153    1
   211   152   214    1
   212   152   215    1
   213   153   154    1
   214   153   216    1
   215   153   217    1
   216   154   155    1
   217   154   218    1
   218   154   219    1
   219   155   156    1
   220   155   220    1
   221   155   221    1
   222   156   222    1
   223   156   223    1
   224   156   224    1
   225   157   158    1
   226   157   225    1
   227   157   226    1
   228   158   159    1
   229   158   227    1
   230   158   228    1
   231   159   160    1
   232   159   229    1
   233   159   230    1
   234   160   161    1
   235   160   231    1
   236   160   232    1
   237   161   162    1
   238   161   233    1
   239   161   234    1
   240   162   163    1
   241   162   235    1
   242   162   236    1
   243   163   164    1
   244   163   237    1
   245   163   238    1
   246   164   239    1
   247   164   240    1
   248   164   241    1
   249   165   166    1
   250   242   243    1
   251   242   287    1
   252   242   288    1
   253   242   289    1
   254   243   244    1
   255   243   290    1
   256   243   291    1
   257   244   245    1
   258   244   292    1
   259   244   293    1
   260   245   246    1
   261   245   294    1
   262   245   295    1
   263   246   247    1
   264   246   296    1
   265   246   297    1
   266   247   248    1
   267   247   298    1
   268   247   299    1
   269   248   249    1
   270   248   300    1
   271   248   301    1
   272   249   250    1
   273   249   302    1
   274   249   303    1
   275   250   251    2
   276   250   252    1
   277   250   260    1
   278   252   253    1
   279   252   304    1
   280   252   305    1
   281   253   254    1
   282   253   306    1
   283   253   307    1
   284   254   255    1
   285   254   308    1
   286   254   309    1
   287   255   256    1
   288   255   310    1
   289   255   311    1
   290   256   257    1
   291   256   312    1
   292   256   313    1
   293   257   258    1
   294   257   314    1
   295   257   315    1
   296   258   259    1
   297   258   316    1
   298   258   317    1
   299   259   318    1
   300   259   319    1
   301   259   320    1
   302   260   261    1
   303   260   321    1
   304   260   322    1
   305   261   262    1
   306   261   285    2
   307   262   263    2
   308   262   323    1
   309   263   264    1
   310   263   324    1
   311   264   265    2
   312   264   325    1
   313   265   266    1
   314   265   285    1
   315   266   267    1
   316   266   326    1
   317   266   327    1
   318   267   268    2
   319   267   269    1
   320   267   277    1
   321   269   270    1
   322   269   328    1
   323   269   329    1
   324   270   271    1
   325   270   330    1
   326   270   331    1
   327   271   272    1
   328   271   332    1
   329   271   333    1
   330   272   273    1
   331   272   334    1
   332   272   335    1
   333   273   274    1
   334   273   336    1
   335   273   337    1
   336   274   275    1
   337   274   338    1
   338   274   339    1
   339   275   276    1
   340   275   340    1
   341   275   341    1
   342   276   342    1
   343   276   343    1
   344   276   344    1
   345   277   278    1
   346   277   345    1
   347   277   346    1
   348   278   279    1
   349   278   347    1
   350   278   348    1
   351   279   280    1
   352   279   349    1
   353   279   350    1
   354   280   281    1
   355   280   351    1
   356   280   352    1
   357   281   282    1
   358   281   353    1
   359   281   354    1
   360   282   283    1
   361   282   355    1
   362   282   356    1
   363   283   284    1
   364   283   357    1
   365   283   358    1
   366   284   359    1
   367   284   360    1
   368   284   361    1
   369   285   286    1
@<TRIPOS>SUBSTRUCTURE
     1 RES1      361 GROUP             0 ****  ****    0  
