@<TRIPOS>MOLECULE
am_c3_9H2O_c0_0_nunpairedes_0_charge_3 Charge: 3 Unpaired_Electrons: 2 XTB_Unpaired_Electrons: 0 XTB_Charge: 3
   340   345     1     0     0
SMALL
NoCharges
****
Generated from Architector

@<TRIPOS>ATOM
     1 Pr1      -0.0643    0.1161   -0.0949   Pr        1 RES1   0.0000
     2 C1        3.6040   -5.3099    1.2747   C.3       1 RES1   0.0000
     3 C2        2.5876   -5.4904    0.1494   C.3       1 RES1   0.0000
     4 C3        2.6201   -4.3081   -0.8270   C.3       1 RES1   0.0000
     5 C4        1.7280   -4.4927   -2.0600   C.3       1 RES1   0.0000
     6 C5        1.9266   -3.4145   -3.1442   C.3       1 RES1   0.0000
     7 C6        0.6304   -2.7288   -3.5962   C.3       1 RES1   0.0000
     8 C7        0.7727   -1.9768   -4.9250   C.3       1 RES1   0.0000
     9 C8       -0.4028   -1.0376   -5.1984   C.3       1 RES1   0.0000
    10 C9       -0.1839    0.3112   -4.5176   C.3       1 RES1   0.0000
    11 C10      -1.3024    1.3597   -4.6313   C.3       1 RES1   0.0000
    12 N1       -2.4326    1.1989   -3.7047   N.am      1 RES1   0.0000
    13 C11      -3.7827    1.4640   -4.2174   C.3       1 RES1   0.0000
    14 C12      -4.0460    1.0371   -5.6716   C.3       1 RES1   0.0000
    15 C13      -3.5431   -0.3550   -6.0937   C.3       1 RES1   0.0000
    16 C14      -4.5961   -1.4216   -6.4000   C.3       1 RES1   0.0000
    17 C15      -3.8978   -2.6844   -6.9297   C.3       1 RES1   0.0000
    18 C16      -4.7061   -3.9784   -6.7806   C.3       1 RES1   0.0000
    19 C17      -4.8073   -4.4739   -5.3263   C.3       1 RES1   0.0000
    20 C18      -4.6801   -5.9880   -5.1015   C.3       1 RES1   0.0000
    21 C19      -5.4687   -6.4988   -3.8835   C.3       1 RES1   0.0000
    22 C20      -5.3929   -5.6882   -2.5943   C.3       1 RES1   0.0000
    23 C21      -2.1453    1.2333   -2.4060   C.2       1 RES1   0.0000
    24 O1       -0.9734    1.2265   -1.9753   O.2       1 RES1   0.0000
    25 C22      -3.2221    1.3195   -1.3166   C.3       1 RES1   0.0000
    26 O2       -2.7807    0.4290   -0.2888   O.3       1 RES1   0.0000
    27 C23      -3.3526    0.6474    0.9965   C.3       1 RES1   0.0000
    28 C24      -2.3538    1.4421    1.8540   C.2       1 RES1   0.0000
    29 O3       -1.2328    1.6602    1.3570   O.2       1 RES1   0.0000
    30 N2       -2.7248    1.9177    3.0368   N.am      1 RES1   0.0000
    31 C25      -1.8965    2.9401    3.6717   C.3       1 RES1   0.0000
    32 C26      -1.1929    2.4954    4.9554   C.3       1 RES1   0.0000
    33 C27       0.2246    1.9504    4.7417   C.3       1 RES1   0.0000
    34 C28       1.3111    2.9815    5.0476   C.3       1 RES1   0.0000
    35 C29       1.2841    4.1806    4.1045   C.3       1 RES1   0.0000
    36 C30       2.4216    5.1542    4.3913   C.3       1 RES1   0.0000
    37 C31      -3.9515    1.5508    3.7270   C.3       1 RES1   0.0000
    38 C32      -5.0425    2.6314    3.7617   C.3       1 RES1   0.0000
    39 C33      -5.6383    3.0016    2.4021   C.3       1 RES1   0.0000
    40 C34      -4.7577    3.8576    1.4758   C.3       1 RES1   0.0000
    41 C35      -4.9535    5.3688    1.6345   C.3       1 RES1   0.0000
    42 C36      -4.3840    5.9568    2.9216   C.3       1 RES1   0.0000
    43 H1        3.5111   -6.1096    2.0044   H         1 RES1   0.0000
    44 H2        3.4571   -4.3578    1.7850   H         1 RES1   0.0000
    45 H3        4.6177   -5.3386    0.8823   H         1 RES1   0.0000
    46 H4        1.5929   -5.6453    0.5818   H         1 RES1   0.0000
    47 H5        2.8324   -6.3983   -0.4037   H         1 RES1   0.0000
    48 H6        3.6562   -4.2049   -1.1303   H         1 RES1   0.0000
    49 H7        2.3336   -3.3727   -0.3369   H         1 RES1   0.0000
    50 H8        0.6973   -4.4454   -1.7266   H         1 RES1   0.0000
    51 H9        1.8931   -5.4896   -2.4732   H         1 RES1   0.0000
    52 H10       2.4082   -3.8607   -4.0124   H         1 RES1   0.0000
    53 H11       2.5799   -2.6407   -2.7495   H         1 RES1   0.0000
    54 H12       0.3229   -2.0380   -2.7988   H         1 RES1   0.0000
    55 H13      -0.1536   -3.4768   -3.7347   H         1 RES1   0.0000
    56 H14       0.8395   -2.7096   -5.7300   H         1 RES1   0.0000
    57 H15       1.6815   -1.3801   -4.9260   H         1 RES1   0.0000
    58 H16      -1.3086   -1.5180   -4.8357   H         1 RES1   0.0000
    59 H17      -0.5062   -0.8799   -6.2705   H         1 RES1   0.0000
    60 H18       0.6919    0.7732   -4.9774   H         1 RES1   0.0000
    61 H19       0.0446    0.1388   -3.4631   H         1 RES1   0.0000
    62 H20      -1.6955    1.3645   -5.6438   H         1 RES1   0.0000
    63 H21      -0.8569    2.3401   -4.4264   H         1 RES1   0.0000
    64 H22      -3.9575    2.5444   -4.1669   H         1 RES1   0.0000
    65 H23      -4.5037    0.9750   -3.5650   H         1 RES1   0.0000
    66 H24      -3.6040    1.7899   -6.3248   H         1 RES1   0.0000
    67 H25      -5.1243    1.0967   -5.8189   H         1 RES1   0.0000
    68 H26      -2.9176   -0.7602   -5.3060   H         1 RES1   0.0000
    69 H27      -2.9182   -0.2424   -6.9818   H         1 RES1   0.0000
    70 H28      -5.3084   -1.0580   -7.1385   H         1 RES1   0.0000
    71 H29      -5.1660   -1.6537   -5.5033   H         1 RES1   0.0000
    72 H30      -2.9348   -2.8098   -6.4255   H         1 RES1   0.0000
    73 H31      -3.6794   -2.5463   -7.9896   H         1 RES1   0.0000
    74 H32      -4.2232   -4.7471   -7.3842   H         1 RES1   0.0000
    75 H33      -5.7004   -3.7971   -7.1924   H         1 RES1   0.0000
    76 H34      -5.7604   -4.1604   -4.9045   H         1 RES1   0.0000
    77 H35      -4.0023   -3.9907   -4.7695   H         1 RES1   0.0000
    78 H36      -3.6251   -6.2607   -5.0209   H         1 RES1   0.0000
    79 H37      -5.0864   -6.5267   -5.9560   H         1 RES1   0.0000
    80 H38      -5.1632   -7.5265   -3.6714   H         1 RES1   0.0000
    81 H39      -6.5171   -6.5286   -4.1685   H         1 RES1   0.0000
    82 H40      -4.4390   -5.8121   -2.0932   H         1 RES1   0.0000
    83 H41      -6.1654   -6.0374   -1.9111   H         1 RES1   0.0000
    84 H42      -5.5580   -4.6310   -2.7806   H         1 RES1   0.0000
    85 H43      -4.2373    1.0522   -1.6210   H         1 RES1   0.0000
    86 H44      -3.2121    2.3576   -0.9542   H         1 RES1   0.0000
    87 H45      -3.5404   -0.3415    1.4359   H         1 RES1   0.0000
    88 H46      -4.2919    1.1997    0.9095   H         1 RES1   0.0000
    89 H47      -2.5476    3.7902    3.8814   H         1 RES1   0.0000
    90 H48      -1.1688    3.2503    2.9221   H         1 RES1   0.0000
    91 H49      -1.8005    1.7423    5.4570   H         1 RES1   0.0000
    92 H50      -1.1439    3.3464    5.6347   H         1 RES1   0.0000
    93 H51       0.3283    1.5807    3.7157   H         1 RES1   0.0000
    94 H52       0.3760    1.1041    5.4106   H         1 RES1   0.0000
    95 H53       2.2932    2.5047    4.9854   H         1 RES1   0.0000
    96 H54       1.1868    3.3302    6.0733   H         1 RES1   0.0000
    97 H55       0.3360    4.7097    4.2136   H         1 RES1   0.0000
    98 H56       1.3464    3.8157    3.0732   H         1 RES1   0.0000
    99 H57       2.3082    5.5830    5.3821   H         1 RES1   0.0000
   100 H58       2.4258    5.9699    3.6727   H         1 RES1   0.0000
   101 H59       3.3845    4.6501    4.3548   H         1 RES1   0.0000
   102 H60      -3.6856    1.3491    4.7675   H         1 RES1   0.0000
   103 H61      -4.3389    0.6223    3.3031   H         1 RES1   0.0000
   104 H62      -4.6714    3.5215    4.2698   H         1 RES1   0.0000
   105 H63      -5.8524    2.2370    4.3821   H         1 RES1   0.0000
   106 H64      -6.5712    3.5395    2.5809   H         1 RES1   0.0000
   107 H65      -5.9084    2.0704    1.8960   H         1 RES1   0.0000
   108 H66      -5.0195    3.6130    0.4413   H         1 RES1   0.0000
   109 H67      -3.6991    3.6293    1.6117   H         1 RES1   0.0000
   110 H68      -6.0200    5.5913    1.5783   H         1 RES1   0.0000
   111 H69      -4.4646    5.8588    0.7876   H         1 RES1   0.0000
   112 H70      -4.9140    5.5917    3.7986   H         1 RES1   0.0000
   113 H71      -4.4893    7.0395    2.9038   H         1 RES1   0.0000
   114 H72      -3.3231    5.7199    3.0159   H         1 RES1   0.0000
   115 C37       4.0697    8.7823   -2.0640   C.3       1 RES1   0.0000
   116 C38       2.6002    9.1900   -2.0591   C.3       1 RES1   0.0000
   117 C39       1.7149    8.1095   -2.6770   C.3       1 RES1   0.0000
   118 C40       0.2319    8.4684   -2.6201   C.3       1 RES1   0.0000
   119 C41      -0.6744    7.4258   -3.2757   C.3       1 RES1   0.0000
   120 C42      -0.6400    6.0188   -2.6676   C.3       1 RES1   0.0000
   121 C43      -1.3177    5.8956   -1.2984   C.3       1 RES1   0.0000
   122 C44      -0.4500    6.1989   -0.0738   C.3       1 RES1   0.0000
   123 C45       0.2776    4.9861    0.5109   C.3       1 RES1   0.0000
   124 C46       1.4918    4.5522   -0.3154   C.3       1 RES1   0.0000
   125 N3        2.3732    3.6975    0.4774   N.am      1 RES1   0.0000
   126 C47       3.5679    4.2653    1.0787   C.3       1 RES1   0.0000
   127 C48       4.8430    3.9549    0.2831   C.3       1 RES1   0.0000
   128 C49       4.7858    4.3855   -1.1831   C.3       1 RES1   0.0000
   129 C50       4.1644    3.3527   -2.1210   C.3       1 RES1   0.0000
   130 C51       3.9036    3.9355   -3.5119   C.3       1 RES1   0.0000
   131 C52       5.1779    4.2853   -4.2939   C.3       1 RES1   0.0000
   132 C53       5.6185    5.7437   -4.1704   C.3       1 RES1   0.0000
   133 C54       6.8210    6.0685   -5.0570   C.3       1 RES1   0.0000
   134 C55       8.0655    5.2200   -4.7952   C.3       1 RES1   0.0000
   135 C56       8.5874    5.3153   -3.3662   C.3       1 RES1   0.0000
   136 C57       2.0252    2.4279    0.5606   C.2       1 RES1   0.0000
   137 O4        1.0433    1.9829   -0.0644   O.2       1 RES1   0.0000
   138 C58       2.8005    1.4510    1.4526   C.3       1 RES1   0.0000
   139 O5        2.6487    0.1064    0.9976   O.3       1 RES1   0.0000
   140 C59       3.7334   -0.3998    0.2091   C.3       1 RES1   0.0000
   141 C60       3.3299   -0.5032   -1.2760   C.2       1 RES1   0.0000
   142 O6        2.1197   -0.3388   -1.5378   O.2       1 RES1   0.0000
   143 N4        4.2867   -0.7413   -2.1730   N.am      1 RES1   0.0000
   144 C61       3.9807   -0.5653   -3.5938   C.3       1 RES1   0.0000
   145 C62       4.9600    0.3073   -4.3853   C.3       1 RES1   0.0000
   146 C63       4.5323    0.4095   -5.8557   C.3       1 RES1   0.0000
   147 C64       4.6219   -0.9124   -6.6201   C.3       1 RES1   0.0000
   148 C65       4.3715   -0.7594   -8.1221   C.3       1 RES1   0.0000
   149 C66       2.9446   -0.3382   -8.4598   C.3       1 RES1   0.0000
   150 C67       5.6657   -1.1234   -1.8419   C.3       1 RES1   0.0000
   151 C68       6.2916   -2.2439   -2.7050   C.3       1 RES1   0.0000
   152 C69       5.6766   -3.6252   -2.4872   C.3       1 RES1   0.0000
   153 C70       6.3690   -4.7655   -3.2623   C.3       1 RES1   0.0000
   154 C71       5.4212   -5.5508   -4.1741   C.3       1 RES1   0.0000
   155 C72       5.0977   -4.8117   -5.4682   C.3       1 RES1   0.0000
   156 H73       4.6868    9.5652   -1.6314   H         1 RES1   0.0000
   157 H74       4.4103    8.6019   -3.0811   H         1 RES1   0.0000
   158 H75       4.2203    7.8705   -1.4849   H         1 RES1   0.0000
   159 H76       2.4824   10.1179   -2.6198   H         1 RES1   0.0000
   160 H77       2.2787    9.3844   -1.0322   H         1 RES1   0.0000
   161 H78       1.8957    7.1700   -2.1461   H         1 RES1   0.0000
   162 H79       2.0080    7.9582   -3.7182   H         1 RES1   0.0000
   163 H80       0.0856    9.4155   -3.1418   H         1 RES1   0.0000
   164 H81      -0.0740    8.6316   -1.5861   H         1 RES1   0.0000
   165 H82      -0.3992    7.3448   -4.3301   H         1 RES1   0.0000
   166 H83      -1.7018    7.7922   -3.2379   H         1 RES1   0.0000
   167 H84       0.3889    5.6657   -2.6195   H         1 RES1   0.0000
   168 H85      -1.1742    5.3605   -3.3596   H         1 RES1   0.0000
   169 H86      -1.7008    4.8771   -1.1893   H         1 RES1   0.0000
   170 H87      -2.1759    6.5684   -1.2946   H         1 RES1   0.0000
   171 H88      -1.0921    6.6005    0.7110   H         1 RES1   0.0000
   172 H89       0.2861    6.9658   -0.3026   H         1 RES1   0.0000
   173 H90      -0.4107    4.1394    0.6152   H         1 RES1   0.0000
   174 H91       0.6386    5.2558    1.5063   H         1 RES1   0.0000
   175 H92       2.0603    5.4217   -0.6363   H         1 RES1   0.0000
   176 H93       1.1703    3.9837   -1.1920   H         1 RES1   0.0000
   177 H94       3.6661    3.9104    2.1079   H         1 RES1   0.0000
   178 H95       3.4222    5.3451    1.1145   H         1 RES1   0.0000
   179 H96       5.0792    2.8892    0.3293   H         1 RES1   0.0000
   180 H97       5.6515    4.4883    0.7823   H         1 RES1   0.0000
   181 H98       5.8068    4.5597   -1.5181   H         1 RES1   0.0000
   182 H99       4.2545    5.3337   -1.2621   H         1 RES1   0.0000
   183 H100      3.2227    2.9621   -1.7284   H         1 RES1   0.0000
   184 H101      4.8525    2.5059   -2.1985   H         1 RES1   0.0000
   185 H102      3.2805    4.8263   -3.4112   H         1 RES1   0.0000
   186 H103      3.3257    3.2031   -4.0807   H         1 RES1   0.0000
   187 H104      5.0051    4.0829   -5.3529   H         1 RES1   0.0000
   188 H105      5.9836    3.6269   -3.9654   H         1 RES1   0.0000
   189 H106      5.8606    5.9923   -3.1387   H         1 RES1   0.0000
   190 H107      4.7870    6.3837   -4.4739   H         1 RES1   0.0000
   191 H108      7.0782    7.1181   -4.9095   H         1 RES1   0.0000
   192 H109      6.5359    5.9462   -6.1031   H         1 RES1   0.0000
   193 H110      8.8494    5.5617   -5.4718   H         1 RES1   0.0000
   194 H111      7.8661    4.1758   -5.0428   H         1 RES1   0.0000
   195 H112      8.6883    6.3552   -3.0666   H         1 RES1   0.0000
   196 H113      9.5647    4.8436   -3.2953   H         1 RES1   0.0000
   197 H114      7.9243    4.8180   -2.6602   H         1 RES1   0.0000
   198 H115      2.3550    1.4835    2.4582   H         1 RES1   0.0000
   199 H116      3.8596    1.7040    1.5254   H         1 RES1   0.0000
   200 H117      3.9758   -1.3947    0.6068   H         1 RES1   0.0000
   201 H118      4.6068    0.2524    0.3139   H         1 RES1   0.0000
   202 H119      2.9925   -0.1039   -3.6355   H         1 RES1   0.0000
   203 H120      3.9323   -1.5487   -4.0587   H         1 RES1   0.0000
   204 H121      5.9695   -0.0976   -4.3591   H         1 RES1   0.0000
   205 H122      4.9917    1.3115   -3.9644   H         1 RES1   0.0000
   206 H123      5.1898    1.1250   -6.3530   H         1 RES1   0.0000
   207 H124      3.5150    0.8009   -5.9061   H         1 RES1   0.0000
   208 H125      3.8952   -1.6278   -6.2316   H         1 RES1   0.0000
   209 H126      5.6186   -1.3357   -6.4789   H         1 RES1   0.0000
   210 H127      4.5713   -1.7204   -8.6000   H         1 RES1   0.0000
   211 H128      5.0713   -0.0336   -8.5377   H         1 RES1   0.0000
   212 H129      2.2258   -1.0126   -7.9957   H         1 RES1   0.0000
   213 H130      2.7905   -0.3735   -9.5354   H         1 RES1   0.0000
   214 H131      2.7398    0.6779   -8.1287   H         1 RES1   0.0000
   215 H132      5.7204   -1.4527   -0.8019   H         1 RES1   0.0000
   216 H133      6.2969   -0.2364   -1.9537   H         1 RES1   0.0000
   217 H134      7.3485   -2.2746   -2.4267   H         1 RES1   0.0000
   218 H135      6.2401   -2.0148   -3.7673   H         1 RES1   0.0000
   219 H136      4.6326   -3.5726   -2.7934   H         1 RES1   0.0000
   220 H137      5.7229   -3.8496   -1.4190   H         1 RES1   0.0000
   221 H138      6.8084   -5.4641   -2.5497   H         1 RES1   0.0000
   222 H139      7.1861   -4.3658   -3.8631   H         1 RES1   0.0000
   223 H140      4.5025   -5.7867   -3.6305   H         1 RES1   0.0000
   224 H141      5.8926   -6.4999   -4.4313   H         1 RES1   0.0000
   225 H142      4.6559   -3.8345   -5.2761   H         1 RES1   0.0000
   226 H143      4.4007   -5.3867   -6.0754   H         1 RES1   0.0000
   227 H144      6.0072   -4.6640   -6.0469   H         1 RES1   0.0000
   228 C73      -8.9276   -6.5823   -5.5267   C.3       1 RES1   0.0000
   229 C74      -8.5879   -5.1276   -5.8164   C.3       1 RES1   0.0000
   230 C75      -8.6863   -4.1990   -4.6042   C.3       1 RES1   0.0000
   231 C76      -8.2241   -2.8031   -5.0254   C.3       1 RES1   0.0000
   232 C77      -8.2054   -1.7287   -3.9370   C.3       1 RES1   0.0000
   233 C78      -7.3389   -2.0838   -2.7134   C.3       1 RES1   0.0000
   234 C79      -6.1868   -1.0966   -2.4652   C.3       1 RES1   0.0000
   235 C80      -4.8114   -1.6823   -2.7848   C.3       1 RES1   0.0000
   236 C81      -4.1095   -2.4235   -1.6456   C.3       1 RES1   0.0000
   237 C82      -2.8466   -2.9967   -2.2878   C.3       1 RES1   0.0000
   238 N5       -1.9570   -3.7105   -1.3705   N.am      1 RES1   0.0000
   239 C83      -1.7497   -5.1256   -1.7277   C.3       1 RES1   0.0000
   240 C84      -1.4777   -6.2158   -0.6933   C.3       1 RES1   0.0000
   241 C85      -2.6949   -6.6117    0.1375   C.3       1 RES1   0.0000
   242 C86      -3.1026   -5.6146    1.2158   C.3       1 RES1   0.0000
   243 C87      -4.5654   -5.7934    1.6301   C.3       1 RES1   0.0000
   244 C88      -4.9905   -7.2412    1.9212   C.3       1 RES1   0.0000
   245 C89      -5.6776   -7.9278    0.7378   C.3       1 RES1   0.0000
   246 C90      -6.3525   -9.2450    1.1141   C.3       1 RES1   0.0000
   247 C91      -5.4034  -10.3076    1.6649   C.3       1 RES1   0.0000
   248 C92      -4.2750  -10.6666    0.7053   C.3       1 RES1   0.0000
   249 C93      -1.1926   -2.8927   -0.6608   C.2       1 RES1   0.0000
   250 O7       -1.2094   -1.6556   -0.8619   O.2       1 RES1   0.0000
   251 C94      -0.3673   -3.3520    0.5272   C.3       1 RES1   0.0000
   252 O8        0.6498   -2.3653    0.7404   O.3       1 RES1   0.0000
   253 C95       1.0944   -2.3945    2.0933   C.3       1 RES1   0.0000
   254 C96      -0.0370   -1.7554    2.9073   C.2       1 RES1   0.0000
   255 O9       -0.6566   -0.8500    2.3063   O.2       1 RES1   0.0000
   256 N6       -0.3856   -2.2480    4.0844   N.am      1 RES1   0.0000
   257 C97      -1.6929   -1.9065    4.6340   C.3       1 RES1   0.0000
   258 C98      -2.6685   -3.0720    4.4286   C.3       1 RES1   0.0000
   259 C99      -4.1154   -2.7077    4.7549   C.3       1 RES1   0.0000
   260 C100     -4.3264   -2.3815    6.2333   C.3       1 RES1   0.0000
   261 C101     -5.7984   -2.4398    6.6445   C.3       1 RES1   0.0000
   262 C102     -6.6623   -1.4066    5.9292   C.3       1 RES1   0.0000
   263 C103      0.4005   -3.2534    4.7942   C.3       1 RES1   0.0000
   264 C104      0.6850   -2.8862    6.2524   C.3       1 RES1   0.0000
   265 C105      1.3802   -1.5289    6.3469   C.3       1 RES1   0.0000
   266 C106      1.6626   -1.0723    7.7818   C.3       1 RES1   0.0000
   267 C107      0.5334   -0.2812    8.4463   C.3       1 RES1   0.0000
   268 C108     -0.6891   -1.1075    8.8383   C.3       1 RES1   0.0000
   269 H145     -8.9838   -7.1328   -6.4601   H         1 RES1   0.0000
   270 H146     -9.8791   -6.6687   -5.0117   H         1 RES1   0.0000
   271 H147     -8.1681   -7.0614   -4.9148   H         1 RES1   0.0000
   272 H148     -9.2596   -4.7481   -6.5888   H         1 RES1   0.0000
   273 H149     -7.5724   -5.0719   -6.2157   H         1 RES1   0.0000
   274 H150     -8.0676   -4.5791   -3.7866   H         1 RES1   0.0000
   275 H151     -9.7146   -4.1629   -4.2384   H         1 RES1   0.0000
   276 H152     -8.8727   -2.4548   -5.8308   H         1 RES1   0.0000
   277 H153     -7.2203   -2.8789   -5.4484   H         1 RES1   0.0000
   278 H154     -9.2266   -1.5185   -3.6198   H         1 RES1   0.0000
   279 H155     -7.8249   -0.8158   -4.4044   H         1 RES1   0.0000
   280 H156     -6.9198   -3.0777   -2.8553   H         1 RES1   0.0000
   281 H157     -7.9684   -2.1455   -1.8262   H         1 RES1   0.0000
   282 H158     -6.2040   -0.7520   -1.4290   H         1 RES1   0.0000
   283 H159     -6.3417   -0.2299   -3.1121   H         1 RES1   0.0000
   284 H160     -4.1378   -0.8913   -3.1173   H         1 RES1   0.0000
   285 H161     -4.9024   -2.3683   -3.6260   H         1 RES1   0.0000
   286 H162     -4.7356   -3.2181   -1.2294   H         1 RES1   0.0000
   287 H163     -3.8550   -1.7276   -0.8454   H         1 RES1   0.0000
   288 H164     -2.2880   -2.1784   -2.7500   H         1 RES1   0.0000
   289 H165     -3.1521   -3.6800   -3.0712   H         1 RES1   0.0000
   290 H166     -0.9559   -5.1416   -2.4837   H         1 RES1   0.0000
   291 H167     -2.6694   -5.4196   -2.2296   H         1 RES1   0.0000
   292 H168     -0.6273   -5.9992   -0.0503   H         1 RES1   0.0000
   293 H169     -1.2071   -7.0825   -1.3025   H         1 RES1   0.0000
   294 H170     -2.4851   -7.5697    0.6123   H         1 RES1   0.0000
   295 H171     -3.5351   -6.7715   -0.5342   H         1 RES1   0.0000
   296 H172     -2.9729   -4.5924    0.8477   H         1 RES1   0.0000
   297 H173     -2.4479   -5.7490    2.0801   H         1 RES1   0.0000
   298 H174     -5.2000   -5.3936    0.8381   H         1 RES1   0.0000
   299 H175     -4.7368   -5.1815    2.5168   H         1 RES1   0.0000
   300 H176     -5.6993   -7.2314    2.7511   H         1 RES1   0.0000
   301 H177     -4.1204   -7.8145    2.2416   H         1 RES1   0.0000
   302 H178     -4.9691   -8.1246   -0.0647   H         1 RES1   0.0000
   303 H179     -6.4427   -7.2515    0.3481   H         1 RES1   0.0000
   304 H180     -6.8378   -9.6406    0.2205   H         1 RES1   0.0000
   305 H181     -7.1335   -9.0530    1.8509   H         1 RES1   0.0000
   306 H182     -5.9878  -11.2056    1.8663   H         1 RES1   0.0000
   307 H183     -4.9826   -9.9780    2.6157   H         1 RES1   0.0000
   308 H184     -4.6706  -10.8675   -0.2873   H         1 RES1   0.0000
   309 H185     -3.7589  -11.5574    1.0533   H         1 RES1   0.0000
   310 H186     -3.5434   -9.8646    0.6279   H         1 RES1   0.0000
   311 H187      0.1002   -4.3288    0.3942   H         1 RES1   0.0000
   312 H188     -1.0594   -3.3837    1.3866   H         1 RES1   0.0000
   313 H189      2.0054   -1.7900    2.1469   H         1 RES1   0.0000
   314 H190      1.3040   -3.4297    2.3704   H         1 RES1   0.0000
   315 H191     -2.0421   -1.0217    4.0993   H         1 RES1   0.0000
   316 H192     -1.5959   -1.6626    5.6899   H         1 RES1   0.0000
   317 H193     -2.3892   -3.9208    5.0543   H         1 RES1   0.0000
   318 H194     -2.6122   -3.3902    3.3830   H         1 RES1   0.0000
   319 H195     -4.7466   -3.5624    4.4977   H         1 RES1   0.0000
   320 H196     -4.4207   -1.8636    4.1341   H         1 RES1   0.0000
   321 H197     -3.9333   -1.3874    6.4577   H         1 RES1   0.0000
   322 H198     -3.7723   -3.1068    6.8332   H         1 RES1   0.0000
   323 H199     -5.8634   -2.2756    7.7215   H         1 RES1   0.0000
   324 H200     -6.1822   -3.4409    6.4411   H         1 RES1   0.0000
   325 H201     -6.2540   -0.4066    6.0700   H         1 RES1   0.0000
   326 H202     -7.6716   -1.4215    6.3315   H         1 RES1   0.0000
   327 H203     -6.7257   -1.6139    4.8626   H         1 RES1   0.0000
   328 H204      1.3624   -3.3494    4.2973   H         1 RES1   0.0000
   329 H205     -0.1232   -4.2117    4.7465   H         1 RES1   0.0000
   330 H206      1.3513   -3.6522    6.6536   H         1 RES1   0.0000
   331 H207     -0.2217   -2.9065    6.8526   H         1 RES1   0.0000
   332 H208      0.7779   -0.7719    5.8387   H         1 RES1   0.0000
   333 H209      2.3295   -1.5955    5.8086   H         1 RES1   0.0000
   334 H210      2.5440   -0.4291    7.7641   H         1 RES1   0.0000
   335 H211      1.9111   -1.9380    8.3968   H         1 RES1   0.0000
   336 H212      0.2291    0.5399    7.7894   H         1 RES1   0.0000
   337 H213      0.9442    0.1657    9.3530   H         1 RES1   0.0000
   338 H214     -1.3253   -1.3316    7.9816   H         1 RES1   0.0000
   339 H215     -1.2859   -0.5543    9.5601   H         1 RES1   0.0000
   340 H216     -0.3820   -2.0423    9.3033   H         1 RES1   0.0000
@<TRIPOS>BOND
     1     1    24    1
     2     1    26    1
     3     1    29    1
     4     1   137    1
     5     1   139    1
     6     1   142    1
     7     1   250    1
     8     1   252    1
     9     1   255    1
    10     2     3    1
    11     2    43    1
    12     2    44    1
    13     2    45    1
    14     3     4    1
    15     3    46    1
    16     3    47    1
    17     4     5    1
    18     4    48    1
    19     4    49    1
    20     5     6    1
    21     5    50    1
    22     5    51    1
    23     6     7    1
    24     6    52    1
    25     6    53    1
    26     7     8    1
    27     7    54    1
    28     7    55    1
    29     8     9    1
    30     8    56    1
    31     8    57    1
    32     9    10    1
    33     9    58    1
    34     9    59    1
    35    10    11    1
    36    10    60    1
    37    10    61    1
    38    11    12    1
    39    11    62    1
    40    11    63    1
    41    12    13    1
    42    12    23    1
    43    13    14    1
    44    13    64    1
    45    13    65    1
    46    14    15    1
    47    14    66    1
    48    14    67    1
    49    15    16    1
    50    15    68    1
    51    15    69    1
    52    16    17    1
    53    16    70    1
    54    16    71    1
    55    17    18    1
    56    17    72    1
    57    17    73    1
    58    18    19    1
    59    18    74    1
    60    18    75    1
    61    19    20    1
    62    19    76    1
    63    19    77    1
    64    20    21    1
    65    20    78    1
    66    20    79    1
    67    21    22    1
    68    21    80    1
    69    21    81    1
    70    22    82    1
    71    22    83    1
    72    22    84    1
    73    23    24    2
    74    23    25    1
    75    25    26    1
    76    25    85    1
    77    25    86    1
    78    26    27    1
    79    27    28    1
    80    27    87    1
    81    27    88    1
    82    28    29    2
    83    28    30    1
    84    30    31    1
    85    30    37    1
    86    31    32    1
    87    31    89    1
    88    31    90    1
    89    32    33    1
    90    32    91    1
    91    32    92    1
    92    33    34    1
    93    33    93    1
    94    33    94    1
    95    34    35    1
    96    34    95    1
    97    34    96    1
    98    35    36    1
    99    35    97    1
   100    35    98    1
   101    36    99    1
   102    36   100    1
   103    36   101    1
   104    37    38    1
   105    37   102    1
   106    37   103    1
   107    38    39    1
   108    38   104    1
   109    38   105    1
   110    39    40    1
   111    39   106    1
   112    39   107    1
   113    40    41    1
   114    40   108    1
   115    40   109    1
   116    41    42    1
   117    41   110    1
   118    41   111    1
   119    42   112    1
   120    42   113    1
   121    42   114    1
   122   115   116    1
   123   115   156    1
   124   115   157    1
   125   115   158    1
   126   116   117    1
   127   116   159    1
   128   116   160    1
   129   117   118    1
   130   117   161    1
   131   117   162    1
   132   118   119    1
   133   118   163    1
   134   118   164    1
   135   119   120    1
   136   119   165    1
   137   119   166    1
   138   120   121    1
   139   120   167    1
   140   120   168    1
   141   121   122    1
   142   121   169    1
   143   121   170    1
   144   122   123    1
   145   122   171    1
   146   122   172    1
   147   123   124    1
   148   123   173    1
   149   123   174    1
   150   124   125    1
   151   124   175    1
   152   124   176    1
   153   125   126    1
   154   125   136    1
   155   126   127    1
   156   126   177    1
   157   126   178    1
   158   127   128    1
   159   127   179    1
   160   127   180    1
   161   128   129    1
   162   128   181    1
   163   128   182    1
   164   129   130    1
   165   129   183    1
   166   129   184    1
   167   130   131    1
   168   130   185    1
   169   130   186    1
   170   131   132    1
   171   131   187    1
   172   131   188    1
   173   132   133    1
   174   132   189    1
   175   132   190    1
   176   133   134    1
   177   133   191    1
   178   133   192    1
   179   134   135    1
   180   134   193    1
   181   134   194    1
   182   135   195    1
   183   135   196    1
   184   135   197    1
   185   136   137    2
   186   136   138    1
   187   138   139    1
   188   138   198    1
   189   138   199    1
   190   139   140    1
   191   140   141    1
   192   140   200    1
   193   140   201    1
   194   141   142    2
   195   141   143    1
   196   143   144    1
   197   143   150    1
   198   144   145    1
   199   144   202    1
   200   144   203    1
   201   145   146    1
   202   145   204    1
   203   145   205    1
   204   146   147    1
   205   146   206    1
   206   146   207    1
   207   147   148    1
   208   147   208    1
   209   147   209    1
   210   148   149    1
   211   148   210    1
   212   148   211    1
   213   149   212    1
   214   149   213    1
   215   149   214    1
   216   150   151    1
   217   150   215    1
   218   150   216    1
   219   151   152    1
   220   151   217    1
   221   151   218    1
   222   152   153    1
   223   152   219    1
   224   152   220    1
   225   153   154    1
   226   153   221    1
   227   153   222    1
   228   154   155    1
   229   154   223    1
   230   154   224    1
   231   155   225    1
   232   155   226    1
   233   155   227    1
   234   228   229    1
   235   228   269    1
   236   228   270    1
   237   228   271    1
   238   229   230    1
   239   229   272    1
   240   229   273    1
   241   230   231    1
   242   230   274    1
   243   230   275    1
   244   231   232    1
   245   231   276    1
   246   231   277    1
   247   232   233    1
   248   232   278    1
   249   232   279    1
   250   233   234    1
   251   233   280    1
   252   233   281    1
   253   234   235    1
   254   234   282    1
   255   234   283    1
   256   235   236    1
   257   235   284    1
   258   235   285    1
   259   236   237    1
   260   236   286    1
   261   236   287    1
   262   237   238    1
   263   237   288    1
   264   237   289    1
   265   238   239    1
   266   238   249    1
   267   239   240    1
   268   239   290    1
   269   239   291    1
   270   240   241    1
   271   240   292    1
   272   240   293    1
   273   241   242    1
   274   241   294    1
   275   241   295    1
   276   242   243    1
   277   242   296    1
   278   242   297    1
   279   243   244    1
   280   243   298    1
   281   243   299    1
   282   244   245    1
   283   244   300    1
   284   244   301    1
   285   245   246    1
   286   245   302    1
   287   245   303    1
   288   246   247    1
   289   246   304    1
   290   246   305    1
   291   247   248    1
   292   247   306    1
   293   247   307    1
   294   248   308    1
   295   248   309    1
   296   248   310    1
   297   249   250    2
   298   249   251    1
   299   251   252    1
   300   251   311    1
   301   251   312    1
   302   252   253    1
   303   253   254    1
   304   253   313    1
   305   253   314    1
   306   254   255    2
   307   254   256    1
   308   256   257    1
   309   256   263    1
   310   257   258    1
   311   257   315    1
   312   257   316    1
   313   258   259    1
   314   258   317    1
   315   258   318    1
   316   259   260    1
   317   259   319    1
   318   259   320    1
   319   260   261    1
   320   260   321    1
   321   260   322    1
   322   261   262    1
   323   261   323    1
   324   261   324    1
   325   262   325    1
   326   262   326    1
   327   262   327    1
   328   263   264    1
   329   263   328    1
   330   263   329    1
   331   264   265    1
   332   264   330    1
   333   264   331    1
   334   265   266    1
   335   265   332    1
   336   265   333    1
   337   266   267    1
   338   266   334    1
   339   266   335    1
   340   267   268    1
   341   267   336    1
   342   267   337    1
   343   268   338    1
   344   268   339    1
   345   268   340    1
@<TRIPOS>SUBSTRUCTURE
     1 RES1      340 GROUP             0 ****  ****    0  
