@<TRIPOS>MOLECULE
am_c3_9H2O_c0_0_nunpairedes_0_charge_3 Charge: 3 Unpaired_Electrons: 2 XTB_Unpaired_Electrons: 0 XTB_Charge: 3
   214   219     1     0     0
SMALL
NoCharges
****
Generated from Architector

@<TRIPOS>ATOM
     1 Pr1      -0.0098   -0.1487    0.0038   Pr        1 RES1   0.0000
     2 C1        3.0964    5.6951    1.9139   C.3       1 RES1   0.0000
     3 C2        2.2377    6.4333    2.9392   C.3       1 RES1   0.0000
     4 C3        1.7601    5.5589    4.1058   C.3       1 RES1   0.0000
     5 C4        0.9757    4.2848    3.7356   C.3       1 RES1   0.0000
     6 C5       -0.5409    4.3591    3.9632   C.3       1 RES1   0.0000
     7 C6       -1.0894    3.0108    4.4447   C.3       1 RES1   0.0000
     8 C7       -2.5808    3.0278    4.7761   C.3       1 RES1   0.0000
     9 C8       -1.3005    4.9142    2.7548   C.3       1 RES1   0.0000
    10 N1       -0.8971    4.5331    1.3917   N.am      1 RES1   0.0000
    11 C9       -0.7037    5.6783    0.5244   C.3       1 RES1   0.0000
    12 C10      -1.0047    3.3154    0.8458   C.2       1 RES1   0.0000
    13 O1       -0.9403    2.2167    1.4081   O.2       1 RES1   0.0000
    14 C11      -1.2897    3.3139   -0.6767   C.3       1 RES1   0.0000
    15 O2       -1.4234    1.9741   -1.1353   O.3       1 RES1   0.0000
    16 C12      -2.7475    1.6057   -1.4952   C.3       1 RES1   0.0000
    17 C13      -3.2361    0.3964   -0.6938   C.2       1 RES1   0.0000
    18 O3       -2.4028   -0.2859   -0.0594   O.2       1 RES1   0.0000
    19 N2       -4.5225    0.0844   -0.7963   N.am      1 RES1   0.0000
    20 C14      -5.4870    0.9119   -1.5045   C.3       1 RES1   0.0000
    21 C15      -4.9913   -1.2175   -0.3224   C.3       1 RES1   0.0000
    22 C16      -5.6602   -1.3030    1.0772   C.3       1 RES1   0.0000
    23 C17      -6.2713    0.0120    1.5960   C.3       1 RES1   0.0000
    24 C18      -5.3104    1.0845    2.1060   C.3       1 RES1   0.0000
    25 C19      -4.7424   -1.9731    2.1192   C.3       1 RES1   0.0000
    26 C20      -5.1157   -3.4388    2.4199   C.3       1 RES1   0.0000
    27 C21      -3.9424   -4.4259    2.4834   C.3       1 RES1   0.0000
    28 C22      -2.7786   -3.9748    3.3607   C.3       1 RES1   0.0000
    29 H1        3.5490    6.4079    1.2301   H         1 RES1   0.0000
    30 H2        3.8926    5.1440    2.4098   H         1 RES1   0.0000
    31 H3        2.4966    5.0013    1.3237   H         1 RES1   0.0000
    32 H4        2.8293    7.2415    3.3762   H         1 RES1   0.0000
    33 H5        1.3888    6.9002    2.4347   H         1 RES1   0.0000
    34 H6        2.6416    5.2728    4.6838   H         1 RES1   0.0000
    35 H7        1.1462    6.1787    4.7585   H         1 RES1   0.0000
    36 H8        1.1644    4.0024    2.6990   H         1 RES1   0.0000
    37 H9        1.3463    3.4701    4.3581   H         1 RES1   0.0000
    38 H10      -0.7399    5.0789    4.7633   H         1 RES1   0.0000
    39 H11      -0.8848    2.2321    3.7077   H         1 RES1   0.0000
    40 H12      -0.5540    2.7682    5.3613   H         1 RES1   0.0000
    41 H13      -3.2016    2.9879    3.8817   H         1 RES1   0.0000
    42 H14      -2.8247    2.1653    5.3922   H         1 RES1   0.0000
    43 H15      -2.8423    3.9162    5.3464   H         1 RES1   0.0000
    44 H16      -2.3587    4.6718    2.8717   H         1 RES1   0.0000
    45 H17      -1.2182    5.9997    2.7960   H         1 RES1   0.0000
    46 H18      -0.2957    6.4910    1.1220   H         1 RES1   0.0000
    47 H19       0.0182    5.4584   -0.2542   H         1 RES1   0.0000
    48 H20      -1.6419    6.0289    0.0833   H         1 RES1   0.0000
    49 H21      -2.2043    3.9002   -0.8356   H         1 RES1   0.0000
    50 H22      -0.5131    3.7931   -1.2837   H         1 RES1   0.0000
    51 H23      -3.4291    2.4514   -1.3837   H         1 RES1   0.0000
    52 H24      -2.7311    1.3084   -2.5535   H         1 RES1   0.0000
    53 H25      -5.5214    1.9301   -1.1110   H         1 RES1   0.0000
    54 H26      -5.2562    0.9599   -2.5715   H         1 RES1   0.0000
    55 H27      -6.4820    0.4847   -1.3965   H         1 RES1   0.0000
    56 H28      -5.7032   -1.5631   -1.0741   H         1 RES1   0.0000
    57 H29      -4.1265   -1.8842   -0.3501   H         1 RES1   0.0000
    58 H30      -6.5159   -1.9707    0.9290   H         1 RES1   0.0000
    59 H31      -6.9186    0.4390    0.8268   H         1 RES1   0.0000
    60 H32      -6.9171   -0.2623    2.4344   H         1 RES1   0.0000
    61 H33      -4.6286    1.4470    1.3398   H         1 RES1   0.0000
    62 H34      -5.9043    1.9227    2.4625   H         1 RES1   0.0000
    63 H35      -4.7198    0.7165    2.9400   H         1 RES1   0.0000
    64 H36      -3.7089   -1.8962    1.7836   H         1 RES1   0.0000
    65 H37      -4.8106   -1.4264    3.0557   H         1 RES1   0.0000
    66 H38      -5.6457   -3.4710    3.3725   H         1 RES1   0.0000
    67 H39      -5.8072   -3.8052    1.6584   H         1 RES1   0.0000
    68 H40      -4.3287   -5.3719    2.8672   H         1 RES1   0.0000
    69 H41      -3.5788   -4.6277    1.4691   H         1 RES1   0.0000
    70 H42      -3.1102   -3.8436    4.3874   H         1 RES1   0.0000
    71 H43      -1.9940   -4.7286    3.3421   H         1 RES1   0.0000
    72 H44      -2.3636   -3.0310    3.0087   H         1 RES1   0.0000
    73 C23       3.9613   -3.9139    5.9644   C.3       1 RES1   0.0000
    74 C24       2.8783   -3.9931    4.8950   C.3       1 RES1   0.0000
    75 C25       1.4854   -3.5539    5.3622   C.3       1 RES1   0.0000
    76 C26       1.3786   -2.1752    6.0222   C.3       1 RES1   0.0000
    77 C27       1.0986   -0.9809    5.0964   C.3       1 RES1   0.0000
    78 C28       0.7086    0.2286    5.9515   C.3       1 RES1   0.0000
    79 C29      -0.7086    0.0956    6.5029   C.3       1 RES1   0.0000
    80 C30       2.3459   -0.7136    4.2389   C.3       1 RES1   0.0000
    81 N3        2.4821    0.5723    3.5469   N.am      1 RES1   0.0000
    82 C31       3.3951    1.5169    4.1563   C.3       1 RES1   0.0000
    83 C32       1.8963    0.7177    2.3675   C.2       1 RES1   0.0000
    84 O4        0.9892   -0.0584    1.9942   O.2       1 RES1   0.0000
    85 C33       2.4542    1.7334    1.3631   C.3       1 RES1   0.0000
    86 O5        1.5123    1.9290    0.3067   O.3       1 RES1   0.0000
    87 C34       2.0733    2.4746   -0.8874   C.3       1 RES1   0.0000
    88 C35       2.1595    1.3523   -1.9468   C.2       1 RES1   0.0000
    89 O6        1.5829    0.2812   -1.6768   O.2       1 RES1   0.0000
    90 N4        2.8248    1.5598   -3.0708   N.am      1 RES1   0.0000
    91 C36       3.0738    2.8845   -3.6036   C.3       1 RES1   0.0000
    92 C37       3.1017    0.4193   -3.9408   C.3       1 RES1   0.0000
    93 C38       4.2761   -0.4323   -3.4347   C.3       1 RES1   0.0000
    94 C39       4.3645   -1.6996   -4.3026   C.3       1 RES1   0.0000
    95 C40       3.2257   -2.6929   -4.1067   C.3       1 RES1   0.0000
    96 C41       5.6618    0.2324   -3.4900   C.3       1 RES1   0.0000
    97 C42       5.9707    1.5254   -2.7182   C.3       1 RES1   0.0000
    98 C43       5.5153    1.6214   -1.2505   C.3       1 RES1   0.0000
    99 C44       6.6446    1.4718   -0.2348   C.3       1 RES1   0.0000
   100 H45       4.8370   -4.4660    5.6358   H         1 RES1   0.0000
   101 H46       4.2682   -2.8883    6.1499   H         1 RES1   0.0000
   102 H47       3.6156   -4.3497    6.8962   H         1 RES1   0.0000
   103 H48       3.1888   -3.4060    4.0298   H         1 RES1   0.0000
   104 H49       2.7893   -5.0356    4.5789   H         1 RES1   0.0000
   105 H50       0.7874   -3.5949    4.5164   H         1 RES1   0.0000
   106 H51       1.1412   -4.2924    6.0885   H         1 RES1   0.0000
   107 H52       0.5597   -2.2284    6.7393   H         1 RES1   0.0000
   108 H53       2.2833   -1.9777    6.5966   H         1 RES1   0.0000
   109 H54       0.2589   -1.2184    4.4360   H         1 RES1   0.0000
   110 H55       1.4145    0.3340    6.7783   H         1 RES1   0.0000
   111 H56       0.7565    1.1267    5.3345   H         1 RES1   0.0000
   112 H57      -0.7850   -0.7364    7.1976   H         1 RES1   0.0000
   113 H58      -0.9956    0.9965    7.0396   H         1 RES1   0.0000
   114 H59      -1.4125   -0.0668    5.6872   H         1 RES1   0.0000
   115 H60       3.2173   -0.8060    4.8846   H         1 RES1   0.0000
   116 H61       2.3962   -1.4835    3.4637   H         1 RES1   0.0000
   117 H62       3.1189    1.6282    5.2067   H         1 RES1   0.0000
   118 H63       3.3443    2.4932    3.6828   H         1 RES1   0.0000
   119 H64       4.4207    1.1485    4.1026   H         1 RES1   0.0000
   120 H65       3.3793    1.2815    0.9672   H         1 RES1   0.0000
   121 H66       2.7117    2.7034    1.8037   H         1 RES1   0.0000
   122 H67       1.3993    3.2603   -1.2449   H         1 RES1   0.0000
   123 H68       3.0586    2.9119   -0.6957   H         1 RES1   0.0000
   124 H69       3.2470    3.6104   -2.8126   H         1 RES1   0.0000
   125 H70       3.9374    2.8584   -4.2659   H         1 RES1   0.0000
   126 H71       2.2147    3.2017   -4.2032   H         1 RES1   0.0000
   127 H72       2.2145   -0.2178   -3.9576   H         1 RES1   0.0000
   128 H73       3.3008    0.7753   -4.9485   H         1 RES1   0.0000
   129 H74       4.0495   -0.7339   -2.4091   H         1 RES1   0.0000
   130 H75       4.4012   -1.4037   -5.3515   H         1 RES1   0.0000
   131 H76       5.3064   -2.2079   -4.0867   H         1 RES1   0.0000
   132 H77       2.3044   -2.3520   -4.5732   H         1 RES1   0.0000
   133 H78       3.5024   -3.6448   -4.5553   H         1 RES1   0.0000
   134 H79       3.0278   -2.8553   -3.0491   H         1 RES1   0.0000
   135 H80       6.3755   -0.5220   -3.1560   H         1 RES1   0.0000
   136 H81       5.8904    0.4226   -4.5414   H         1 RES1   0.0000
   137 H82       7.0566    1.6370   -2.7550   H         1 RES1   0.0000
   138 H83       5.5740    2.3798   -3.2613   H         1 RES1   0.0000
   139 H84       5.0851    2.6167   -1.1052   H         1 RES1   0.0000
   140 H85       4.7295    0.8871   -1.0485   H         1 RES1   0.0000
   141 H86       7.5018    2.0656   -0.5385   H         1 RES1   0.0000
   142 H87       6.3205    1.8311    0.7398   H         1 RES1   0.0000
   143 H88       6.9630    0.4402   -0.1285   H         1 RES1   0.0000
   144 C45       7.2476   -0.5338    2.9782   C.3       1 RES1   0.0000
   145 C46       5.8017   -1.0070    2.8728   C.3       1 RES1   0.0000
   146 C47       5.6219   -2.5188    2.7047   C.3       1 RES1   0.0000
   147 C48       6.2360   -3.1198    1.4426   C.3       1 RES1   0.0000
   148 C49       5.5874   -2.6833    0.1256   C.3       1 RES1   0.0000
   149 C50       6.5406   -3.0087   -1.0450   C.3       1 RES1   0.0000
   150 C51       7.8194   -2.1809   -1.1007   C.3       1 RES1   0.0000
   151 C52       4.2673   -3.4010   -0.2423   C.3       1 RES1   0.0000
   152 N5        3.1781   -3.5945    0.7234   N.am      1 RES1   0.0000
   153 C53       3.2357   -4.8522    1.4511   C.3       1 RES1   0.0000
   154 C54       2.0802   -2.8489    0.6388   C.2       1 RES1   0.0000
   155 O7        2.0338   -1.7475    0.0622   O.2       1 RES1   0.0000
   156 C55       0.7766   -3.3761    1.2765   C.3       1 RES1   0.0000
   157 O8       -0.3325   -2.6020    0.8054   O.3       1 RES1   0.0000
   158 C56      -1.2791   -3.3044   -0.0001   C.3       1 RES1   0.0000
   159 C57      -1.4378   -2.6411   -1.3767   C.2       1 RES1   0.0000
   160 O9       -0.6891   -1.6934   -1.6864   O.2       1 RES1   0.0000
   161 N6       -2.3715   -3.1045   -2.1972   N.am      1 RES1   0.0000
   162 C58      -3.3771   -4.1029   -1.8710   C.3       1 RES1   0.0000
   163 C59      -2.3874   -2.6194   -3.5803   C.3       1 RES1   0.0000
   164 C60      -1.1609   -3.0882   -4.3867   C.3       1 RES1   0.0000
   165 C61      -1.3777   -2.7490   -5.8677   C.3       1 RES1   0.0000
   166 C62      -0.1125   -2.9221   -6.7019   C.3       1 RES1   0.0000
   167 C63      -0.8710   -4.5863   -4.1728   C.3       1 RES1   0.0000
   168 C64       0.4800   -4.8167   -3.4911   C.3       1 RES1   0.0000
   169 C65       0.6671   -6.2421   -2.9592   C.3       1 RES1   0.0000
   170 C66       0.0703   -6.4534   -1.5721   C.3       1 RES1   0.0000
   171 H89       7.7916   -0.6882    2.0511   H         1 RES1   0.0000
   172 H90       7.2727    0.5303    3.2073   H         1 RES1   0.0000
   173 H91       7.7653   -1.0630    3.7745   H         1 RES1   0.0000
   174 H92       5.2922   -0.4838    2.0558   H         1 RES1   0.0000
   175 H93       5.2855   -0.7450    3.8000   H         1 RES1   0.0000
   176 H94       4.5477   -2.7192    2.7207   H         1 RES1   0.0000
   177 H95       6.0698   -3.0184    3.5670   H         1 RES1   0.0000
   178 H96       6.2147   -4.2100    1.5116   H         1 RES1   0.0000
   179 H97       7.2890   -2.8394    1.4245   H         1 RES1   0.0000
   180 H98       5.4185   -1.6040    0.1515   H         1 RES1   0.0000
   181 H99       5.9987   -2.8694   -1.9834   H         1 RES1   0.0000
   182 H100      6.8171   -4.0631   -0.9714   H         1 RES1   0.0000
   183 H101      7.6026   -1.1241   -1.2300   H         1 RES1   0.0000
   184 H102      8.4244   -2.5058   -1.9435   H         1 RES1   0.0000
   185 H103      8.4201   -2.3059   -0.2049   H         1 RES1   0.0000
   186 H104      4.5360   -4.4031   -0.5854   H         1 RES1   0.0000
   187 H105      3.8204   -2.8599   -1.0815   H         1 RES1   0.0000
   188 H106      4.2176   -4.9366    1.9123   H         1 RES1   0.0000
   189 H107      3.1023   -5.6973    0.7701   H         1 RES1   0.0000
   190 H108      2.4904   -4.9067    2.2393   H         1 RES1   0.0000
   191 H109      0.8174   -3.2617    2.3683   H         1 RES1   0.0000
   192 H110      0.6415   -4.4381    1.0401   H         1 RES1   0.0000
   193 H111     -2.2329   -3.2940    0.5387   H         1 RES1   0.0000
   194 H112     -0.9791   -4.3470   -0.1579   H         1 RES1   0.0000
   195 H113     -3.4088   -4.3431   -0.8125   H         1 RES1   0.0000
   196 H114     -3.1990   -5.0241   -2.4287   H         1 RES1   0.0000
   197 H115     -4.3567   -3.7213   -2.1643   H         1 RES1   0.0000
   198 H116     -2.4084   -1.5242   -3.5657   H         1 RES1   0.0000
   199 H117     -3.3005   -2.9778   -4.0545   H         1 RES1   0.0000
   200 H118     -0.2999   -2.5162   -4.0323   H         1 RES1   0.0000
   201 H119     -1.7148   -1.7138   -5.9593   H         1 RES1   0.0000
   202 H120     -2.1630   -3.3899   -6.2721   H         1 RES1   0.0000
   203 H121      0.6831   -2.2666   -6.3520   H         1 RES1   0.0000
   204 H122     -0.3204   -2.6814   -7.7414   H         1 RES1   0.0000
   205 H123      0.2502   -3.9450   -6.6602   H         1 RES1   0.0000
   206 H124     -0.8652   -5.0940   -5.1350   H         1 RES1   0.0000
   207 H125     -1.6562   -5.0537   -3.5836   H         1 RES1   0.0000
   208 H126      0.5981   -4.0981   -2.6708   H         1 RES1   0.0000
   209 H127      1.2683   -4.6083   -4.2167   H         1 RES1   0.0000
   210 H128      1.7345   -6.4612   -2.9057   H         1 RES1   0.0000
   211 H129      0.2285   -6.9537   -3.6591   H         1 RES1   0.0000
   212 H130      0.5356   -5.7660   -0.8636   H         1 RES1   0.0000
   213 H131      0.2543   -7.4691   -1.2325   H         1 RES1   0.0000
   214 H132     -1.0058   -6.2968   -1.5629   H         1 RES1   0.0000
@<TRIPOS>BOND
     1     1    13    1
     2     1    15    1
     3     1    18    1
     4     1    84    1
     5     1    86    1
     6     1    89    1
     7     1   155    1
     8     1   157    1
     9     1   160    1
    10     2     3    1
    11     2    29    1
    12     2    30    1
    13     2    31    1
    14     3     4    1
    15     3    32    1
    16     3    33    1
    17     4     5    1
    18     4    34    1
    19     4    35    1
    20     5     6    1
    21     5    36    1
    22     5    37    1
    23     6     7    1
    24     6     9    1
    25     6    38    1
    26     7     8    1
    27     7    39    1
    28     7    40    1
    29     8    41    1
    30     8    42    1
    31     8    43    1
    32     9    10    1
    33     9    44    1
    34     9    45    1
    35    10    11    1
    36    10    12    1
    37    11    46    1
    38    11    47    1
    39    11    48    1
    40    12    13    2
    41    12    14    1
    42    14    15    1
    43    14    49    1
    44    14    50    1
    45    15    16    1
    46    16    17    1
    47    16    51    1
    48    16    52    1
    49    17    18    2
    50    17    19    1
    51    19    20    1
    52    19    21    1
    53    20    53    1
    54    20    54    1
    55    20    55    1
    56    21    22    1
    57    21    56    1
    58    21    57    1
    59    22    23    1
    60    22    25    1
    61    22    58    1
    62    23    24    1
    63    23    59    1
    64    23    60    1
    65    24    61    1
    66    24    62    1
    67    24    63    1
    68    25    26    1
    69    25    64    1
    70    25    65    1
    71    26    27    1
    72    26    66    1
    73    26    67    1
    74    27    28    1
    75    27    68    1
    76    27    69    1
    77    28    70    1
    78    28    71    1
    79    28    72    1
    80    73    74    1
    81    73   100    1
    82    73   101    1
    83    73   102    1
    84    74    75    1
    85    74   103    1
    86    74   104    1
    87    75    76    1
    88    75   105    1
    89    75   106    1
    90    76    77    1
    91    76   107    1
    92    76   108    1
    93    77    78    1
    94    77    80    1
    95    77   109    1
    96    78    79    1
    97    78   110    1
    98    78   111    1
    99    79   112    1
   100    79   113    1
   101    79   114    1
   102    80    81    1
   103    80   115    1
   104    80   116    1
   105    81    82    1
   106    81    83    1
   107    82   117    1
   108    82   118    1
   109    82   119    1
   110    83    84    2
   111    83    85    1
   112    85    86    1
   113    85   120    1
   114    85   121    1
   115    86    87    1
   116    87    88    1
   117    87   122    1
   118    87   123    1
   119    88    89    2
   120    88    90    1
   121    90    91    1
   122    90    92    1
   123    91   124    1
   124    91   125    1
   125    91   126    1
   126    92    93    1
   127    92   127    1
   128    92   128    1
   129    93    94    1
   130    93    96    1
   131    93   129    1
   132    94    95    1
   133    94   130    1
   134    94   131    1
   135    95   132    1
   136    95   133    1
   137    95   134    1
   138    96    97    1
   139    96   135    1
   140    96   136    1
   141    97    98    1
   142    97   137    1
   143    97   138    1
   144    98    99    1
   145    98   139    1
   146    98   140    1
   147    99   141    1
   148    99   142    1
   149    99   143    1
   150   144   145    1
   151   144   171    1
   152   144   172    1
   153   144   173    1
   154   145   146    1
   155   145   174    1
   156   145   175    1
   157   146   147    1
   158   146   176    1
   159   146   177    1
   160   147   148    1
   161   147   178    1
   162   147   179    1
   163   148   149    1
   164   148   151    1
   165   148   180    1
   166   149   150    1
   167   149   181    1
   168   149   182    1
   169   150   183    1
   170   150   184    1
   171   150   185    1
   172   151   152    1
   173   151   186    1
   174   151   187    1
   175   152   153    1
   176   152   154    1
   177   153   188    1
   178   153   189    1
   179   153   190    1
   180   154   155    2
   181   154   156    1
   182   156   157    1
   183   156   191    1
   184   156   192    1
   185   157   158    1
   186   158   159    1
   187   158   193    1
   188   158   194    1
   189   159   160    2
   190   159   161    1
   191   161   162    1
   192   161   163    1
   193   162   195    1
   194   162   196    1
   195   162   197    1
   196   163   164    1
   197   163   198    1
   198   163   199    1
   199   164   165    1
   200   164   167    1
   201   164   200    1
   202   165   166    1
   203   165   201    1
   204   165   202    1
   205   166   203    1
   206   166   204    1
   207   166   205    1
   208   167   168    1
   209   167   206    1
   210   167   207    1
   211   168   169    1
   212   168   208    1
   213   168   209    1
   214   169   170    1
   215   169   210    1
   216   169   211    1
   217   170   212    1
   218   170   213    1
   219   170   214    1
@<TRIPOS>SUBSTRUCTURE
     1 RES1      214 GROUP             0 ****  ****    0  
