@<TRIPOS>MOLECULE
am_c3_9H2O_c0_0_nunpairedes_0_charge_3 Charge: 3 Unpaired_Electrons: 2 XTB_Unpaired_Electrons: 0 XTB_Charge: 3
   104   119     1     0     0
SMALL
NoCharges
****
Generated from Architector

@<TRIPOS>ATOM
     1 Pr1       0.0569   -0.0627    0.0172   Pr        1 RES1   0.0000
     2 O1        0.8945   -2.1241    0.6237   O.2       1 RES1   0.0000
     3 C1        1.6789   -2.2907    1.5918   C.2       1 RES1   0.0000
     4 C2        2.3949   -1.0552    2.1010   C.ar      1 RES1   0.0000
     5 C3        3.3859   -0.9891    3.0851   C.ar      1 RES1   0.0000
     6 C4        3.9459    0.2427    3.4074   C.ar      1 RES1   0.0000
     7 Cl1       5.1501    0.3161    4.6031   Cl        1 RES1   0.0000
     8 C5        3.5039    1.4154    2.7437   C.ar      1 RES1   0.0000
     9 C6        4.0149    2.7189    2.9891   C.ar      1 RES1   0.0000
    10 C7        3.5513    3.8013    2.3071   C.ar      1 RES1   0.0000
    11 C8        2.5181    3.6824    1.3353   C.ar      1 RES1   0.0000
    12 C9        1.9884    4.7708    0.5943   C.ar      1 RES1   0.0000
    13 Cl2       2.5891    6.3543    0.7939   Cl        1 RES1   0.0000
    14 C10       0.9547    4.5491   -0.3059   C.ar      1 RES1   0.0000
    15 C11       0.4279    3.2631   -0.4406   C.ar      1 RES1   0.0000
    16 C12      -0.7248    2.8273   -1.3085   C.2       1 RES1   0.0000
    17 O2       -0.9314    1.5926   -1.3940   O.2       1 RES1   0.0000
    18 N1       -1.5289    3.6504   -1.9730   N.am      1 RES1   0.0000
    19 C13      -2.5720    3.0263   -2.7936   C.3       1 RES1   0.0000
    20 C14      -3.1598    4.1743   -3.6012   C.3       1 RES1   0.0000
    21 C15      -3.0161    5.3516   -2.6407   C.3       1 RES1   0.0000
    22 C16      -1.6445    5.1035   -2.0068   C.3       1 RES1   0.0000
    23 N2        0.9403    2.2276    0.2269   N.ar      1 RES1   0.0000
    24 C17       1.9612    2.4065    1.0772   C.ar      1 RES1   0.0000
    25 C18       2.4859    1.2467    1.7766   C.ar      1 RES1   0.0000
    26 N3        1.9697    0.0449    1.4777   N.ar      1 RES1   0.0000
    27 N4        1.8173   -3.5078    2.0954   N.am      1 RES1   0.0000
    28 C19       2.6438   -4.0368    3.1755   C.3       1 RES1   0.0000
    29 C20       2.2012   -5.4921    3.3219   C.3       1 RES1   0.0000
    30 C21       1.7467   -5.8568    1.9090   C.3       1 RES1   0.0000
    31 C22       1.0505   -4.5827    1.4593   C.3       1 RES1   0.0000
    32 H1        3.7409   -1.8621    3.6048   H         1 RES1   0.0000
    33 H2        4.7958    2.8371    3.7252   H         1 RES1   0.0000
    34 H3        3.9608    4.7799    2.4987   H         1 RES1   0.0000
    35 H4        0.5855    5.3800   -0.8832   H         1 RES1   0.0000
    36 H5       -3.3100    2.5556   -2.1361   H         1 RES1   0.0000
    37 H6       -2.1314    2.2415   -3.4093   H         1 RES1   0.0000
    38 H7       -4.1897    3.9950   -3.8993   H         1 RES1   0.0000
    39 H8       -2.5672    4.3418   -4.5003   H         1 RES1   0.0000
    40 H9       -3.7870    5.3126   -1.8720   H         1 RES1   0.0000
    41 H10      -3.0831    6.3168   -3.1376   H         1 RES1   0.0000
    42 H11      -1.5819    5.5310   -1.0064   H         1 RES1   0.0000
    43 H12      -0.8578    5.5348   -2.6324   H         1 RES1   0.0000
    44 H13       2.4954   -3.4897    4.1048   H         1 RES1   0.0000
    45 H14       3.6962   -3.9903    2.8938   H         1 RES1   0.0000
    46 H15       1.3637   -5.5580    4.0150   H         1 RES1   0.0000
    47 H16       2.9984   -6.1387    3.6813   H         1 RES1   0.0000
    48 H17       1.0901   -6.7261    1.8866   H         1 RES1   0.0000
    49 H18       2.6104   -6.0483    1.2688   H         1 RES1   0.0000
    50 H19       0.0190   -4.5309    1.8177   H         1 RES1   0.0000
    51 H20       1.0415   -4.4475    0.3773   H         1 RES1   0.0000
    52 O3       -0.7358   -0.4565    2.2673   O.2       1 RES1   0.0000
    53 C23      -1.9288   -0.7524    2.5249   C.2       1 RES1   0.0000
    54 C24      -2.7847   -1.2100    1.3656   C.ar      1 RES1   0.0000
    55 C25      -4.0825   -1.7282    1.4339   C.ar      1 RES1   0.0000
    56 C26      -4.7352   -2.0817    0.2617   C.ar      1 RES1   0.0000
    57 Cl3      -6.3471   -2.6314    0.3389   Cl        1 RES1   0.0000
    58 C27      -4.0538   -1.9724   -0.9781   C.ar      1 RES1   0.0000
    59 C28      -4.6339   -2.2944   -2.2335   C.ar      1 RES1   0.0000
    60 C29      -3.9324   -2.1766   -3.3907   C.ar      1 RES1   0.0000
    61 C30      -2.5821   -1.7417   -3.3942   C.ar      1 RES1   0.0000
    62 C31      -1.7940   -1.6054   -4.5675   C.ar      1 RES1   0.0000
    63 Cl4      -2.4130   -2.0147   -6.1026   Cl        1 RES1   0.0000
    64 C32      -0.5031   -1.1100   -4.4671   C.ar      1 RES1   0.0000
    65 C33       0.0173   -0.7922   -3.2074   C.ar      1 RES1   0.0000
    66 C34       1.3692   -0.1851   -2.8924   C.2       1 RES1   0.0000
    67 O4        1.6757   -0.0937   -1.6777   O.2       1 RES1   0.0000
    68 N5        2.2124    0.2915   -3.8045   N.am      1 RES1   0.0000
    69 C35       3.4766    0.8604   -3.3223   C.3       1 RES1   0.0000
    70 C36       4.3610    0.9115   -4.5588   C.3       1 RES1   0.0000
    71 C37       3.3529    1.2075   -5.6643   C.3       1 RES1   0.0000
    72 C38       2.1494    0.3489   -5.2625   C.3       1 RES1   0.0000
    73 N6       -0.6914   -0.9911   -2.0972   N.ar      1 RES1   0.0000
    74 C39      -1.9572   -1.4147   -2.1681   C.ar      1 RES1   0.0000
    75 C40      -2.7184   -1.5039   -0.9336   C.ar      1 RES1   0.0000
    76 N7       -2.1353   -1.1037    0.2054   N.ar      1 RES1   0.0000
    77 N8       -2.3440   -0.6372    3.7819   N.am      1 RES1   0.0000
    78 C41      -3.6489   -0.8005    4.4193   C.3       1 RES1   0.0000
    79 C42      -3.4681   -0.1631    5.8009   C.3       1 RES1   0.0000
    80 C43      -2.0060   -0.4641    6.1186   C.3       1 RES1   0.0000
    81 C44      -1.3324   -0.2450    4.7722   C.3       1 RES1   0.0000
    82 H21      -4.5960   -1.8677    2.3694   H         1 RES1   0.0000
    83 H22      -5.6537   -2.6413   -2.2540   H         1 RES1   0.0000
    84 H23      -4.3954   -2.4149   -4.3342   H         1 RES1   0.0000
    85 H24       0.0735   -0.9939   -5.3683   H         1 RES1   0.0000
    86 H25       3.8820    0.2390   -2.5243   H         1 RES1   0.0000
    87 H26       3.2836    1.8563   -2.9093   H         1 RES1   0.0000
    88 H27       4.8293   -0.0592   -4.7192   H         1 RES1   0.0000
    89 H28       5.1430    1.6624   -4.4875   H         1 RES1   0.0000
    90 H29       3.7283    0.9578   -6.6539   H         1 RES1   0.0000
    91 H30       3.0761    2.2618   -5.6609   H         1 RES1   0.0000
    92 H31       2.2518   -0.6574   -5.6788   H         1 RES1   0.0000
    93 H32       1.2140    0.7932   -5.6068   H         1 RES1   0.0000
    94 H33      -3.8923   -1.8620    4.5250   H         1 RES1   0.0000
    95 H34      -4.4373   -0.3088    3.8483   H         1 RES1   0.0000
    96 H35      -4.1552   -0.5657    6.5418   H         1 RES1   0.0000
    97 H36      -3.6312    0.9126    5.7357   H         1 RES1   0.0000
    98 H37      -1.8911   -1.5018    6.4311   H         1 RES1   0.0000
    99 H38      -1.6006    0.1777    6.8964   H         1 RES1   0.0000
   100 H39      -0.4337   -0.8462    4.6295   H         1 RES1   0.0000
   101 H40      -1.0580    0.8034    4.6117   H         1 RES1   0.0000
   102 O5       -1.6650    1.8859    1.3685   O.3       1 RES1   0.0000
   103 H41      -2.6259    1.9191    1.4098   H         1 RES1   0.0000
   104 H42      -1.3465    2.1662    2.2355   H         1 RES1   0.0000
@<TRIPOS>BOND
     1     1     2    1
     2     1    17    1
     3     1    23    1
     4     1    26    1
     5     1    52    1
     6     1    67    1
     7     1    73    1
     8     1    76    1
     9     1   102    1
    10     2     3    2
    11     3     4    1
    12     3    27    1
    13     4     5    1
    14     4    26    2
    15     5     6    2
    16     5    32    1
    17     6     7    1
    18     6     8    1
    19     8     9    1
    20     8    25    2
    21     9    10    2
    22     9    33    1
    23    10    11    1
    24    10    34    1
    25    11    12    1
    26    11    24    2
    27    12    13    1
    28    12    14    2
    29    14    15    1
    30    14    35    1
    31    15    16    1
    32    15    23    2
    33    16    17    2
    34    16    18    1
    35    18    19    1
    36    18    22    1
    37    19    20    1
    38    19    36    1
    39    19    37    1
    40    20    21    1
    41    20    38    1
    42    20    39    1
    43    21    22    1
    44    21    40    1
    45    21    41    1
    46    22    42    1
    47    22    43    1
    48    23    24    1
    49    24    25    1
    50    25    26    1
    51    27    28    1
    52    27    31    1
    53    28    29    1
    54    28    44    1
    55    28    45    1
    56    29    30    1
    57    29    46    1
    58    29    47    1
    59    30    31    1
    60    30    48    1
    61    30    49    1
    62    31    50    1
    63    31    51    1
    64    52    53    2
    65    53    54    1
    66    53    77    1
    67    54    55    1
    68    54    76    2
    69    55    56    2
    70    55    82    1
    71    56    57    1
    72    56    58    1
    73    58    59    1
    74    58    75    2
    75    59    60    2
    76    59    83    1
    77    60    61    1
    78    60    84    1
    79    61    62    1
    80    61    74    2
    81    62    63    1
    82    62    64    2
    83    64    65    1
    84    64    85    1
    85    65    66    1
    86    65    73    2
    87    66    67    2
    88    66    68    1
    89    68    69    1
    90    68    72    1
    91    69    70    1
    92    69    86    1
    93    69    87    1
    94    70    71    1
    95    70    88    1
    96    70    89    1
    97    71    72    1
    98    71    90    1
    99    71    91    1
   100    72    92    1
   101    72    93    1
   102    73    74    1
   103    74    75    1
   104    75    76    1
   105    77    78    1
   106    77    81    1
   107    78    79    1
   108    78    94    1
   109    78    95    1
   110    79    80    1
   111    79    96    1
   112    79    97    1
   113    80    81    1
   114    80    98    1
   115    80    99    1
   116    81   100    1
   117    81   101    1
   118   102   103    1
   119   102   104    1
@<TRIPOS>SUBSTRUCTURE
     1 RES1      104 GROUP             0 ****  ****    0  
