@<TRIPOS>MOLECULE
am_c3_9H2O_c0_0_nunpairedes_0_charge_3 Charge: 3 Unpaired_Electrons: 2 XTB_Unpaired_Electrons: 0 XTB_Charge: 3
   284   291     1     0     0
SMALL
NoCharges
****
Generated from Architector

@<TRIPOS>ATOM
     1 Pr1       0.0634    0.0039    0.0719   Pr        1 RES1   0.0000
     2 C1       -6.3519   -1.0352    6.0766   C.3       1 RES1   0.0000
     3 C2       -5.0210   -0.4385    6.5172   C.3       1 RES1   0.0000
     4 C3       -3.9034   -1.4798    6.6151   C.3       1 RES1   0.0000
     5 C4       -3.5562   -2.1753    5.2899   C.3       1 RES1   0.0000
     6 C5       -2.9298   -1.2392    4.2359   C.3       1 RES1   0.0000
     7 C6       -1.4070   -1.2820    4.2767   C.3       1 RES1   0.0000
     8 C7       -0.8168   -0.1638    3.4400   C.3       1 RES1   0.0000
     9 C8       -3.3590   -1.4830    2.7769   C.3       1 RES1   0.0000
    10 P1       -2.2806   -2.4824    1.6302   P.3       1 RES1   0.0000
    11 O1       -0.9186   -2.0182    1.1972   O.2       1 RES1   0.0000
    12 C9       -3.4165   -2.4588    0.1868   C.3       1 RES1   0.0000
    13 C10      -3.6449   -0.9971   -0.1524   C.2       1 RES1   0.0000
    14 O2       -2.6699   -0.2218   -0.1013   O.2       1 RES1   0.0000
    15 N1       -4.8722   -0.5792   -0.4798   N.am      1 RES1   0.0000
    16 C11      -6.0924   -1.3777   -0.4171   C.3       1 RES1   0.0000
    17 C12      -6.5133   -2.0290   -1.7489   C.3       1 RES1   0.0000
    18 C13      -5.4577   -2.9894   -2.2881   C.3       1 RES1   0.0000
    19 C14      -7.8401   -2.7680   -1.5692   C.3       1 RES1   0.0000
    20 C15      -5.0140    0.7139   -1.1469   C.3       1 RES1   0.0000
    21 C16      -5.3341    1.9542   -0.2855   C.3       1 RES1   0.0000
    22 C17      -4.0549    2.5745    0.2760   C.3       1 RES1   0.0000
    23 C18      -6.3618    1.6990    0.8138   C.3       1 RES1   0.0000
    24 C19      -2.1852   -4.1436    2.3355   C.ar      1 RES1   0.0000
    25 C20      -0.9290   -4.7086    2.5078   C.ar      1 RES1   0.0000
    26 C21      -0.7830   -5.8708    3.2407   C.ar      1 RES1   0.0000
    27 C22      -1.8995   -6.4788    3.7910   C.ar      1 RES1   0.0000
    28 C23      -3.1600   -5.9443    3.5806   C.ar      1 RES1   0.0000
    29 C24      -3.3050   -4.7768    2.8573   C.ar      1 RES1   0.0000
    30 H1       -7.1458   -0.3023    6.1741   H         1 RES1   0.0000
    31 H2       -6.6141   -1.8944    6.6820   H         1 RES1   0.0000
    32 H3       -6.3177   -1.3686    5.0441   H         1 RES1   0.0000
    33 H4       -5.1470    0.0061    7.5071   H         1 RES1   0.0000
    34 H5       -4.7500    0.3670    5.8280   H         1 RES1   0.0000
    35 H6       -4.2414   -2.2491    7.3105   H         1 RES1   0.0000
    36 H7       -3.0171   -1.0059    7.0469   H         1 RES1   0.0000
    37 H8       -4.4782   -2.6195    4.9199   H         1 RES1   0.0000
    38 H9       -2.8654   -2.9933    5.5019   H         1 RES1   0.0000
    39 H10      -3.2511   -0.2227    4.4880   H         1 RES1   0.0000
    40 H11      -1.0905   -2.2564    3.8892   H         1 RES1   0.0000
    41 H12      -1.0600   -1.1909    5.3055   H         1 RES1   0.0000
    42 H13      -1.0278   -0.2686    2.3716   H         1 RES1   0.0000
    43 H14       0.2554   -0.1337    3.5734   H         1 RES1   0.0000
    44 H15      -1.2405    0.7861    3.7422   H         1 RES1   0.0000
    45 H16      -3.4862   -0.5244    2.2654   H         1 RES1   0.0000
    46 H17      -4.3192   -2.0036    2.7335   H         1 RES1   0.0000
    47 H18      -4.3014   -3.0602    0.3585   H         1 RES1   0.0000
    48 H19      -2.8779   -2.8896   -0.6553   H         1 RES1   0.0000
    49 H20      -6.8961   -0.7058   -0.1128   H         1 RES1   0.0000
    50 H21      -6.0070   -2.1413    0.3555   H         1 RES1   0.0000
    51 H22      -6.6659   -1.2303   -2.4813   H         1 RES1   0.0000
    52 H23      -5.3812   -3.8632   -1.6442   H         1 RES1   0.0000
    53 H24      -4.4837   -2.5113   -2.3701   H         1 RES1   0.0000
    54 H25      -5.7532   -3.3263   -3.2775   H         1 RES1   0.0000
    55 H26      -7.7425   -3.5753   -0.8465   H         1 RES1   0.0000
    56 H27      -8.1468   -3.2035   -2.5157   H         1 RES1   0.0000
    57 H28      -8.6349   -2.1027   -1.2434   H         1 RES1   0.0000
    58 H29      -5.7961    0.6048   -1.9002   H         1 RES1   0.0000
    59 H30      -4.0723    0.9019   -1.6588   H         1 RES1   0.0000
    60 H31      -5.7742    2.6810   -0.9771   H         1 RES1   0.0000
    61 H32      -3.5317    1.8686    0.9147   H         1 RES1   0.0000
    62 H33      -4.2917    3.4624    0.8583   H         1 RES1   0.0000
    63 H34      -3.3931    2.8570   -0.5418   H         1 RES1   0.0000
    64 H35      -5.9888    0.9822    1.5429   H         1 RES1   0.0000
    65 H36      -7.3010    1.3391    0.3956   H         1 RES1   0.0000
    66 H37      -6.5668    2.6356    1.3265   H         1 RES1   0.0000
    67 H38      -0.0731   -4.2253    2.0605   H         1 RES1   0.0000
    68 H39       0.2006   -6.2886    3.3901   H         1 RES1   0.0000
    69 H40      -1.7958   -7.3707    4.3865   H         1 RES1   0.0000
    70 H41      -4.0264   -6.4282    4.0042   H         1 RES1   0.0000
    71 H42      -4.2886   -4.3584    2.7172   H         1 RES1   0.0000
    72 C25       2.3855    6.5727    6.2925   C.3       1 RES1   0.0000
    73 C26       2.1366    5.2094    6.9252   C.3       1 RES1   0.0000
    74 C27       0.6515    4.8445    6.9479   C.3       1 RES1   0.0000
    75 C28       0.0889    4.4775    5.5700   C.3       1 RES1   0.0000
    76 C29       0.5763    3.0844    5.1505   C.3       1 RES1   0.0000
    77 C30      -0.2260    2.0147    5.9059   C.3       1 RES1   0.0000
    78 C31       0.6486    0.8523    6.3681   C.3       1 RES1   0.0000
    79 C32       0.7017    2.8744    3.6250   C.3       1 RES1   0.0000
    80 P2       -0.6511    3.2185    2.3957   P.3       1 RES1   0.0000
    81 O3       -1.0368    2.0375    1.5464   O.2       1 RES1   0.0000
    82 C33       0.0936    4.5446    1.3319   C.3       1 RES1   0.0000
    83 C34       1.1247    3.8976    0.4273   C.2       1 RES1   0.0000
    84 O4        1.2272    2.6552    0.3955   O.2       1 RES1   0.0000
    85 N2        1.9079    4.6925   -0.3085   N.am      1 RES1   0.0000
    86 C35       1.8338    6.1481   -0.3416   C.3       1 RES1   0.0000
    87 C36       1.2777    6.7420   -1.6525   C.3       1 RES1   0.0000
    88 C37      -0.1046    6.1768   -1.9655   C.3       1 RES1   0.0000
    89 C38       1.1800    8.2622   -1.5224   C.3       1 RES1   0.0000
    90 C39       2.8930    4.0399   -1.1595   C.3       1 RES1   0.0000
    91 C40       4.3585    4.1096   -0.6764   C.3       1 RES1   0.0000
    92 C41       4.4611    3.7704    0.8099   C.3       1 RES1   0.0000
    93 C42       5.0658    5.4275   -1.0164   C.3       1 RES1   0.0000
    94 C43      -2.1068    3.9827    3.1644   C.ar      1 RES1   0.0000
    95 C44      -3.1377    3.1327    3.5376   C.ar      1 RES1   0.0000
    96 C45      -4.2514    3.6198    4.1962   C.ar      1 RES1   0.0000
    97 C46      -4.3352    4.9703    4.4851   C.ar      1 RES1   0.0000
    98 C47      -3.3112    5.8266    4.1192   C.ar      1 RES1   0.0000
    99 C48      -2.1975    5.3371    3.4587   C.ar      1 RES1   0.0000
   100 H43       3.4421    6.8218    6.3207   H         1 RES1   0.0000
   101 H44       1.8397    7.3410    6.8314   H         1 RES1   0.0000
   102 H45       2.0626    6.5958    5.2537   H         1 RES1   0.0000
   103 H46       2.5059    5.2175    7.9521   H         1 RES1   0.0000
   104 H47       2.7102    4.4521    6.3838   H         1 RES1   0.0000
   105 H48       0.0993    5.6888    7.3599   H         1 RES1   0.0000
   106 H49       0.4972    4.0059    7.6282   H         1 RES1   0.0000
   107 H50       0.3962    5.2324    4.8476   H         1 RES1   0.0000
   108 H51      -0.9996    4.4871    5.6204   H         1 RES1   0.0000
   109 H52       1.6031    3.0032    5.5232   H         1 RES1   0.0000
   110 H53      -1.0556    1.6701    5.2961   H         1 RES1   0.0000
   111 H54      -0.6684    2.4732    6.7889   H         1 RES1   0.0000
   112 H55       1.1239    0.3589    5.5240   H         1 RES1   0.0000
   113 H56       0.0753    0.1100    6.9207   H         1 RES1   0.0000
   114 H57       1.4272    1.2185    7.0355   H         1 RES1   0.0000
   115 H58       0.9697    1.8452    3.3873   H         1 RES1   0.0000
   116 H59       1.5316    3.5003    3.2907   H         1 RES1   0.0000
   117 H60       0.5677    5.2719    1.9879   H         1 RES1   0.0000
   118 H61      -0.6862    5.0567    0.7640   H         1 RES1   0.0000
   119 H62       2.8408    6.5377   -0.1844   H         1 RES1   0.0000
   120 H63       1.2007    6.4943    0.4727   H         1 RES1   0.0000
   121 H64       1.9607    6.5154   -2.4774   H         1 RES1   0.0000
   122 H65      -0.8095    6.4862   -1.1952   H         1 RES1   0.0000
   123 H66      -0.0894    5.0890   -2.0239   H         1 RES1   0.0000
   124 H67      -0.4473    6.5710   -2.9183   H         1 RES1   0.0000
   125 H68       0.4772    8.5349   -0.7389   H         1 RES1   0.0000
   126 H69       0.8201    8.6897   -2.4538   H         1 RES1   0.0000
   127 H70       2.1408    8.7157   -1.2992   H         1 RES1   0.0000
   128 H71       2.8291    4.4662   -2.1626   H         1 RES1   0.0000
   129 H72       2.6002    2.9845   -1.1913   H         1 RES1   0.0000
   130 H73       4.8665    3.3167   -1.2362   H         1 RES1   0.0000
   131 H74       4.1062    4.5959    1.4239   H         1 RES1   0.0000
   132 H75       5.4990    3.5812    1.0697   H         1 RES1   0.0000
   133 H76       3.8650    2.8875    1.0364   H         1 RES1   0.0000
   134 H77       4.9355    6.1737   -0.2344   H         1 RES1   0.0000
   135 H78       4.6952    5.8292   -1.9572   H         1 RES1   0.0000
   136 H79       6.1350    5.2591   -1.1299   H         1 RES1   0.0000
   137 H80      -3.0499    2.0868    3.2897   H         1 RES1   0.0000
   138 H81      -5.0397    2.9461    4.4957   H         1 RES1   0.0000
   139 H82      -5.1948    5.3620    5.0034   H         1 RES1   0.0000
   140 H83      -3.3737    6.8738    4.3694   H         1 RES1   0.0000
   141 H84      -1.4079    6.0210    3.1954   H         1 RES1   0.0000
   142 C49       8.5057   -3.3205    1.0424   C.3       1 RES1   0.0000
   143 C50       8.3773   -2.6793   -0.3366   C.3       1 RES1   0.0000
   144 C51       7.2557   -3.2714   -1.1993   C.3       1 RES1   0.0000
   145 C52       5.8838   -3.3144   -0.5195   C.3       1 RES1   0.0000
   146 C53       5.4157   -1.9409   -0.0346   C.3       1 RES1   0.0000
   147 C54       4.7920   -1.1071   -1.1508   C.3       1 RES1   0.0000
   148 C55       4.4765    0.3143   -0.6936   C.3       1 RES1   0.0000
   149 C56       4.4610   -2.0358    1.1528   C.3       1 RES1   0.0000
   150 P3        2.6974   -2.5385    0.9556   P.3       1 RES1   0.0000
   151 O5        1.8350   -1.7631    0.0084   O.2       1 RES1   0.0000
   152 C57       2.1135   -2.2121    2.6935   C.3       1 RES1   0.0000
   153 C58       2.4914   -0.7727    2.8948   C.2       1 RES1   0.0000
   154 O6        1.9214    0.0527    2.1433   O.2       1 RES1   0.0000
   155 N3        3.4374   -0.4154    3.7731   N.am      1 RES1   0.0000
   156 C59       4.1809   -1.3377    4.6204   C.3       1 RES1   0.0000
   157 C60       3.6566   -1.4665    6.0626   C.3       1 RES1   0.0000
   158 C61       2.4803   -2.4347    6.1604   C.3       1 RES1   0.0000
   159 C62       4.7999   -1.9647    6.9484   C.3       1 RES1   0.0000
   160 C63       3.6847    1.0173    3.9470   C.3       1 RES1   0.0000
   161 C64       5.1327    1.5629    3.9209   C.3       1 RES1   0.0000
   162 C65       6.0024    0.9046    2.8532   C.3       1 RES1   0.0000
   163 C66       5.8280    1.5675    5.2833   C.3       1 RES1   0.0000
   164 C67       2.5898   -4.3314    0.7226   C.ar      1 RES1   0.0000
   165 C68       1.7626   -4.8304   -0.2717   C.ar      1 RES1   0.0000
   166 C69       1.7025   -6.1913   -0.5097   C.ar      1 RES1   0.0000
   167 C70       2.4661   -7.0555    0.2552   C.ar      1 RES1   0.0000
   168 C71       3.2710   -6.5674    1.2697   C.ar      1 RES1   0.0000
   169 C72       3.3363   -5.2070    1.5042   C.ar      1 RES1   0.0000
   170 H85       9.3950   -2.9451    1.5431   H         1 RES1   0.0000
   171 H86       8.5943   -4.4007    0.9571   H         1 RES1   0.0000
   172 H87       7.6479   -3.0930    1.6736   H         1 RES1   0.0000
   173 H88       9.3157   -2.8162   -0.8767   H         1 RES1   0.0000
   174 H89       8.2387   -1.6010   -0.2203   H         1 RES1   0.0000
   175 H90       7.5268   -4.2949   -1.4604   H         1 RES1   0.0000
   176 H91       7.1992   -2.6938   -2.1243   H         1 RES1   0.0000
   177 H92       5.9548   -3.9925    0.3317   H         1 RES1   0.0000
   178 H93       5.1427   -3.7297   -1.2076   H         1 RES1   0.0000
   179 H94       6.2971   -1.4054    0.3377   H         1 RES1   0.0000
   180 H95       3.8697   -1.5973   -1.4686   H         1 RES1   0.0000
   181 H96       5.4837   -1.0803   -1.9946   H         1 RES1   0.0000
   182 H97       3.5327    0.3562   -0.1430   H         1 RES1   0.0000
   183 H98       4.3988    0.9808   -1.5437   H         1 RES1   0.0000
   184 H99       5.2807    0.6881   -0.0654   H         1 RES1   0.0000
   185 H100      4.4027   -1.0488    1.6119   H         1 RES1   0.0000
   186 H101      4.8768   -2.7274    1.8898   H         1 RES1   0.0000
   187 H102      2.4679   -2.9291    3.4231   H         1 RES1   0.0000
   188 H103      1.0242   -2.2604    2.6210   H         1 RES1   0.0000
   189 H104      5.1971   -0.9540    4.6834   H         1 RES1   0.0000
   190 H105      4.2273   -2.3218    4.1532   H         1 RES1   0.0000
   191 H106      3.3464   -0.4741    6.3995   H         1 RES1   0.0000
   192 H107      2.8151   -3.4331    5.8859   H         1 RES1   0.0000
   193 H108      1.6488   -2.1485    5.5188   H         1 RES1   0.0000
   194 H109      2.1233   -2.4754    7.1857   H         1 RES1   0.0000
   195 H110      5.1897   -2.9023    6.5598   H         1 RES1   0.0000
   196 H111      4.4476   -2.1434    7.9590   H         1 RES1   0.0000
   197 H112      5.6156   -1.2477    6.9999   H         1 RES1   0.0000
   198 H113      3.2206    1.3288    4.8874   H         1 RES1   0.0000
   199 H114      3.1436    1.4848    3.1240   H         1 RES1   0.0000
   200 H115      5.0092    2.6139    3.6303   H         1 RES1   0.0000
   201 H116      6.3359   -0.0848    3.1562   H         1 RES1   0.0000
   202 H117      6.8883    1.5071    2.6714   H         1 RES1   0.0000
   203 H118      5.4475    0.8337    1.9229   H         1 RES1   0.0000
   204 H119      6.2107    0.5859    5.5505   H         1 RES1   0.0000
   205 H120      5.1480    1.9015    6.0637   H         1 RES1   0.0000
   206 H121      6.6707    2.2553    5.2550   H         1 RES1   0.0000
   207 H122      1.1637   -4.1411   -0.8479   H         1 RES1   0.0000
   208 H123      1.0699   -6.5726   -1.2948   H         1 RES1   0.0000
   209 H124      2.4435   -8.1152    0.0629   H         1 RES1   0.0000
   210 H125      3.8544   -7.2542    1.8627   H         1 RES1   0.0000
   211 H126      3.9760   -4.8410    2.2915   H         1 RES1   0.0000
   212 C73      -1.1075   -1.5540   -8.7117   C.3       1 RES1   0.0000
   213 C74      -2.1161   -0.4599   -8.3776   C.3       1 RES1   0.0000
   214 C75      -3.2548   -0.9150   -7.4594   C.3       1 RES1   0.0000
   215 C76      -2.7913   -1.3645   -6.0695   C.3       1 RES1   0.0000
   216 C77      -2.1854   -0.2100   -5.2540   C.3       1 RES1   0.0000
   217 C78      -3.1550    0.2964   -4.1869   C.3       1 RES1   0.0000
   218 C79      -2.7650    1.6867   -3.6786   C.3       1 RES1   0.0000
   219 C80      -0.7997   -0.5031   -4.6614   C.3       1 RES1   0.0000
   220 P4       -0.5537   -1.7038   -3.2766   P.3       1 RES1   0.0000
   221 O7       -0.9751   -1.2269   -1.9196   O.2       1 RES1   0.0000
   222 C81       1.2938   -1.9150   -3.2469   C.3       1 RES1   0.0000
   223 C82       1.8831   -0.5367   -3.1234   C.2       1 RES1   0.0000
   224 O8        1.5379    0.1741   -2.1517   O.2       1 RES1   0.0000
   225 N4        2.6890   -0.0823   -4.0925   N.am      1 RES1   0.0000
   226 C83       3.1984   -0.8720   -5.2095   C.3       1 RES1   0.0000
   227 C84       4.5044   -1.6275   -4.8849   C.3       1 RES1   0.0000
   228 C85       4.2638   -2.9892   -4.2386   C.3       1 RES1   0.0000
   229 C86       5.3218   -1.8223   -6.1613   C.3       1 RES1   0.0000
   230 C87       3.3091    1.2294   -3.9437   C.3       1 RES1   0.0000
   231 C88       2.8431    2.3816   -4.8604   C.3       1 RES1   0.0000
   232 C89       1.3457    2.6413   -4.7291   C.3       1 RES1   0.0000
   233 C90       3.2377    2.2730   -6.3363   C.3       1 RES1   0.0000
   234 C91      -1.0779   -3.3943   -3.6992   C.ar      1 RES1   0.0000
   235 C92      -1.6753   -4.2291   -2.7673   C.ar      1 RES1   0.0000
   236 C93      -2.0679   -5.5096   -3.1152   C.ar      1 RES1   0.0000
   237 C94      -1.8495   -5.9666   -4.4024   C.ar      1 RES1   0.0000
   238 C95      -1.2076   -5.1600   -5.3270   C.ar      1 RES1   0.0000
   239 C96      -0.8161   -3.8829   -4.9746   C.ar      1 RES1   0.0000
   240 H127     -0.3624   -1.1686   -9.4035   H         1 RES1   0.0000
   241 H128     -1.5996   -2.4007   -9.1812   H         1 RES1   0.0000
   242 H129     -0.5863   -1.9156   -7.8273   H         1 RES1   0.0000
   243 H130     -2.5547   -0.1041   -9.3110   H         1 RES1   0.0000
   244 H131     -1.5861    0.3882   -7.9368   H         1 RES1   0.0000
   245 H132     -3.7752   -1.7440   -7.9430   H         1 RES1   0.0000
   246 H133     -3.9647   -0.0924   -7.3501   H         1 RES1   0.0000
   247 H134     -2.0745   -2.1675   -6.1994   H         1 RES1   0.0000
   248 H135     -3.6409   -1.7865   -5.5306   H         1 RES1   0.0000
   249 H136     -2.0242    0.6167   -5.9544   H         1 RES1   0.0000
   250 H137     -3.1658   -0.4213   -3.3593   H         1 RES1   0.0000
   251 H138     -4.1551    0.3422   -4.6211   H         1 RES1   0.0000
   252 H139     -2.0952    1.5955   -2.8295   H         1 RES1   0.0000
   253 H140     -3.6389    2.2607   -3.3799   H         1 RES1   0.0000
   254 H141     -2.2580    2.2546   -4.4567   H         1 RES1   0.0000
   255 H142     -0.4032    0.4190   -4.2221   H         1 RES1   0.0000
   256 H143     -0.1381   -0.8159   -5.4722   H         1 RES1   0.0000
   257 H144      1.6667   -2.5169   -4.0656   H         1 RES1   0.0000
   258 H145      1.4519   -2.4583   -2.3107   H         1 RES1   0.0000
   259 H146      3.4200   -0.1647   -6.0058   H         1 RES1   0.0000
   260 H147      2.4325   -1.5493   -5.5881   H         1 RES1   0.0000
   261 H148      5.0801   -0.9951   -4.2011   H         1 RES1   0.0000
   262 H149      3.6734   -3.6104   -4.9101   H         1 RES1   0.0000
   263 H150      3.7583   -2.9102   -3.2799   H         1 RES1   0.0000
   264 H151      5.2193   -3.4813   -4.0760   H         1 RES1   0.0000
   265 H152      4.7562   -2.3909   -6.8942   H         1 RES1   0.0000
   266 H153      6.2291   -2.3742   -5.9356   H         1 RES1   0.0000
   267 H154      5.6146   -0.8754   -6.6069   H         1 RES1   0.0000
   268 H155      4.3902    1.1197   -4.0660   H         1 RES1   0.0000
   269 H156      3.0965    1.5429   -2.9207   H         1 RES1   0.0000
   270 H157      3.3711    3.2556   -4.4581   H         1 RES1   0.0000
   271 H158      0.7755    1.8579   -5.2202   H         1 RES1   0.0000
   272 H159      1.0976    3.5841   -5.2089   H         1 RES1   0.0000
   273 H160      1.0494    2.6873   -3.6820   H         1 RES1   0.0000
   274 H161      2.5665    1.6164   -6.8884   H         1 RES1   0.0000
   275 H162      4.2632    1.9265   -6.4475   H         1 RES1   0.0000
   276 H163      3.1766    3.2592   -6.7943   H         1 RES1   0.0000
   277 H164     -1.8045   -3.8736   -1.7573   H         1 RES1   0.0000
   278 H165     -2.5420   -6.1471   -2.3838   H         1 RES1   0.0000
   279 H166     -2.1717   -6.9537   -4.6892   H         1 RES1   0.0000
   280 H167     -1.0252   -5.5327   -6.3223   H         1 RES1   0.0000
   281 H168     -0.3059   -3.2691   -5.6998   H         1 RES1   0.0000
   282 O9       -0.7303    1.9676   -1.2778   O.3       1 RES1   0.0000
   283 H169     -1.1967    2.2817   -0.4795   H         1 RES1   0.0000
   284 H170     -0.0658    2.6340   -1.5078   H         1 RES1   0.0000
@<TRIPOS>BOND
     1     1    11    1
     2     1    14    1
     3     1    81    1
     4     1    84    1
     5     1   151    1
     6     1   154    1
     7     1   221    1
     8     1   224    1
     9     1   282    1
    10     2     3    1
    11     2    30    1
    12     2    31    1
    13     2    32    1
    14     3     4    1
    15     3    33    1
    16     3    34    1
    17     4     5    1
    18     4    35    1
    19     4    36    1
    20     5     6    1
    21     5    37    1
    22     5    38    1
    23     6     7    1
    24     6     9    1
    25     6    39    1
    26     7     8    1
    27     7    40    1
    28     7    41    1
    29     8    42    1
    30     8    43    1
    31     8    44    1
    32     9    10    1
    33     9    45    1
    34     9    46    1
    35    10    11    2
    36    10    12    1
    37    10    24    1
    38    12    13    1
    39    12    47    1
    40    12    48    1
    41    13    14    2
    42    13    15    1
    43    15    16    1
    44    15    20    1
    45    16    17    1
    46    16    49    1
    47    16    50    1
    48    17    18    1
    49    17    19    1
    50    17    51    1
    51    18    52    1
    52    18    53    1
    53    18    54    1
    54    19    55    1
    55    19    56    1
    56    19    57    1
    57    20    21    1
    58    20    58    1
    59    20    59    1
    60    21    22    1
    61    21    23    1
    62    21    60    1
    63    22    61    1
    64    22    62    1
    65    22    63    1
    66    23    64    1
    67    23    65    1
    68    23    66    1
    69    24    25    1
    70    24    29    2
    71    25    26    2
    72    25    67    1
    73    26    27    1
    74    26    68    1
    75    27    28    2
    76    27    69    1
    77    28    29    1
    78    28    70    1
    79    29    71    1
    80    72    73    1
    81    72   100    1
    82    72   101    1
    83    72   102    1
    84    73    74    1
    85    73   103    1
    86    73   104    1
    87    74    75    1
    88    74   105    1
    89    74   106    1
    90    75    76    1
    91    75   107    1
    92    75   108    1
    93    76    77    1
    94    76    79    1
    95    76   109    1
    96    77    78    1
    97    77   110    1
    98    77   111    1
    99    78   112    1
   100    78   113    1
   101    78   114    1
   102    79    80    1
   103    79   115    1
   104    79   116    1
   105    80    81    2
   106    80    82    1
   107    80    94    1
   108    82    83    1
   109    82   117    1
   110    82   118    1
   111    83    84    2
   112    83    85    1
   113    85    86    1
   114    85    90    1
   115    86    87    1
   116    86   119    1
   117    86   120    1
   118    87    88    1
   119    87    89    1
   120    87   121    1
   121    88   122    1
   122    88   123    1
   123    88   124    1
   124    89   125    1
   125    89   126    1
   126    89   127    1
   127    90    91    1
   128    90   128    1
   129    90   129    1
   130    91    92    1
   131    91    93    1
   132    91   130    1
   133    92   131    1
   134    92   132    1
   135    92   133    1
   136    93   134    1
   137    93   135    1
   138    93   136    1
   139    94    95    1
   140    94    99    2
   141    95    96    2
   142    95   137    1
   143    96    97    1
   144    96   138    1
   145    97    98    2
   146    97   139    1
   147    98    99    1
   148    98   140    1
   149    99   141    1
   150   142   143    1
   151   142   170    1
   152   142   171    1
   153   142   172    1
   154   143   144    1
   155   143   173    1
   156   143   174    1
   157   144   145    1
   158   144   175    1
   159   144   176    1
   160   145   146    1
   161   145   177    1
   162   145   178    1
   163   146   147    1
   164   146   149    1
   165   146   179    1
   166   147   148    1
   167   147   180    1
   168   147   181    1
   169   148   182    1
   170   148   183    1
   171   148   184    1
   172   149   150    1
   173   149   185    1
   174   149   186    1
   175   150   151    2
   176   150   152    1
   177   150   164    1
   178   152   153    1
   179   152   187    1
   180   152   188    1
   181   153   154    2
   182   153   155    1
   183   155   156    1
   184   155   160    1
   185   156   157    1
   186   156   189    1
   187   156   190    1
   188   157   158    1
   189   157   159    1
   190   157   191    1
   191   158   192    1
   192   158   193    1
   193   158   194    1
   194   159   195    1
   195   159   196    1
   196   159   197    1
   197   160   161    1
   198   160   198    1
   199   160   199    1
   200   161   162    1
   201   161   163    1
   202   161   200    1
   203   162   201    1
   204   162   202    1
   205   162   203    1
   206   163   204    1
   207   163   205    1
   208   163   206    1
   209   164   165    1
   210   164   169    2
   211   165   166    2
   212   165   207    1
   213   166   167    1
   214   166   208    1
   215   167   168    2
   216   167   209    1
   217   168   169    1
   218   168   210    1
   219   169   211    1
   220   212   213    1
   221   212   240    1
   222   212   241    1
   223   212   242    1
   224   213   214    1
   225   213   243    1
   226   213   244    1
   227   214   215    1
   228   214   245    1
   229   214   246    1
   230   215   216    1
   231   215   247    1
   232   215   248    1
   233   216   217    1
   234   216   219    1
   235   216   249    1
   236   217   218    1
   237   217   250    1
   238   217   251    1
   239   218   252    1
   240   218   253    1
   241   218   254    1
   242   219   220    1
   243   219   255    1
   244   219   256    1
   245   220   221    2
   246   220   222    1
   247   220   234    1
   248   222   223    1
   249   222   257    1
   250   222   258    1
   251   223   224    2
   252   223   225    1
   253   225   226    1
   254   225   230    1
   255   226   227    1
   256   226   259    1
   257   226   260    1
   258   227   228    1
   259   227   229    1
   260   227   261    1
   261   228   262    1
   262   228   263    1
   263   228   264    1
   264   229   265    1
   265   229   266    1
   266   229   267    1
   267   230   231    1
   268   230   268    1
   269   230   269    1
   270   231   232    1
   271   231   233    1
   272   231   270    1
   273   232   271    1
   274   232   272    1
   275   232   273    1
   276   233   274    1
   277   233   275    1
   278   233   276    1
   279   234   235    1
   280   234   239    2
   281   235   236    2
   282   235   277    1
   283   236   237    1
   284   236   278    1
   285   237   238    2
   286   237   279    1
   287   238   239    1
   288   238   280    1
   289   239   281    1
   290   282   283    1
   291   282   284    1
@<TRIPOS>SUBSTRUCTURE
     1 RES1      284 GROUP             0 ****  ****    0  
