@<TRIPOS>MOLECULE
am_c3_9H2O_c0_0_nunpairedes_0_charge_3 Charge: 3 Unpaired_Electrons: 2 XTB_Unpaired_Electrons: 0 XTB_Charge: 3
   358   363     1     0     0
SMALL
NoCharges
****
Generated from Architector

@<TRIPOS>ATOM
     1 Pr1      -0.3223    0.2720    0.2095   Pr        1 RES1   0.0000
     2 C1       -4.2742   -7.8752   -4.1235   C.3       1 RES1   0.0000
     3 C2       -3.8473   -6.4101   -4.1584   C.3       1 RES1   0.0000
     4 C3       -5.0197   -5.4346   -4.3489   C.3       1 RES1   0.0000
     5 C4       -5.9347   -5.3391   -3.1255   C.3       1 RES1   0.0000
     6 C5       -6.9945   -4.2310   -3.1729   C.3       1 RES1   0.0000
     7 C6       -6.4802   -2.7852   -3.0617   C.3       1 RES1   0.0000
     8 C7       -5.5463   -2.5671   -1.8554   C.3       1 RES1   0.0000
     9 C8       -5.7220   -1.2845   -1.0228   C.3       1 RES1   0.0000
    10 N1       -5.1120   -0.0836   -1.5938   N.am      1 RES1   0.0000
    11 C9       -5.9459    0.6835   -2.5096   C.3       1 RES1   0.0000
    12 C10      -6.8316    1.7213   -1.8106   C.3       1 RES1   0.0000
    13 C11      -7.9994    2.1884   -2.6894   C.3       1 RES1   0.0000
    14 C12      -7.5948    2.6564   -4.0881   C.3       1 RES1   0.0000
    15 C13      -8.7943    3.0945   -4.9363   C.3       1 RES1   0.0000
    16 C14      -8.3702    3.4797   -6.3573   C.3       1 RES1   0.0000
    17 C15      -8.0562    2.2845   -7.2554   C.3       1 RES1   0.0000
    18 C16      -7.4981    2.7379   -8.6011   C.3       1 RES1   0.0000
    19 C17      -3.8762    0.2458   -1.2370   C.2       1 RES1   0.0000
    20 O1       -3.1478   -0.4624   -0.5231   O.2       1 RES1   0.0000
    21 C18      -3.2428    1.5604   -1.6957   C.3       1 RES1   0.0000
    22 C19      -2.2551    1.2778   -2.8217   C.3       1 RES1   0.0000
    23 O2       -2.4959    2.0237   -0.5678   O.3       1 RES1   0.0000
    24 C20      -2.6853    3.3976   -0.2394   C.3       1 RES1   0.0000
    25 C21      -2.3407    4.3411   -1.3961   C.3       1 RES1   0.0000
    26 C22      -1.7534    3.5913    0.9745   C.2       1 RES1   0.0000
    27 O3       -0.9670    2.6598    1.2475   O.2       1 RES1   0.0000
    28 N2       -1.8446    4.7027    1.6970   N.am      1 RES1   0.0000
    29 C23      -1.1544    4.7611    2.9836   C.3       1 RES1   0.0000
    30 C24       0.0832    5.6490    3.0349   C.3       1 RES1   0.0000
    31 C25       1.2744    5.1306    2.2388   C.3       1 RES1   0.0000
    32 C26       2.5595    5.7890    2.7519   C.3       1 RES1   0.0000
    33 C27       2.7724    7.2263    2.2890   C.3       1 RES1   0.0000
    34 C28       3.8832    7.9243    3.0767   C.3       1 RES1   0.0000
    35 C29       5.2388    7.2042    3.0498   C.3       1 RES1   0.0000
    36 C30       5.4913    6.3116    4.2635   C.3       1 RES1   0.0000
    37 C31      -2.8106    5.7814    1.4856   C.3       1 RES1   0.0000
    38 C32      -2.2319    7.1969    1.2952   C.3       1 RES1   0.0000
    39 C33      -1.1213    7.3618    0.2461   C.3       1 RES1   0.0000
    40 C34      -1.5744    8.0351   -1.0538   C.3       1 RES1   0.0000
    41 C35      -1.7651    9.5567   -0.9571   C.3       1 RES1   0.0000
    42 C36      -0.5080   10.3853   -1.2474   C.3       1 RES1   0.0000
    43 C37       0.5376   10.4159   -0.1212   C.3       1 RES1   0.0000
    44 C38       1.7835    9.5952   -0.4366   C.3       1 RES1   0.0000
    45 H1       -3.4000   -8.5236   -4.1015   H         1 RES1   0.0000
    46 H2       -4.8523   -8.1238   -5.0103   H         1 RES1   0.0000
    47 H3       -4.8779   -8.0989   -3.2471   H         1 RES1   0.0000
    48 H4       -3.1446   -6.2696   -4.9860   H         1 RES1   0.0000
    49 H5       -3.3144   -6.1840   -3.2260   H         1 RES1   0.0000
    50 H6       -5.6054   -5.7581   -5.2094   H         1 RES1   0.0000
    51 H7       -4.6246   -4.4446   -4.5933   H         1 RES1   0.0000
    52 H8       -5.3274   -5.2074   -2.2294   H         1 RES1   0.0000
    53 H9       -6.4635   -6.2857   -3.0094   H         1 RES1   0.0000
    54 H10      -7.6836   -4.4065   -2.3416   H         1 RES1   0.0000
    55 H11      -7.5657   -4.3238   -4.1008   H         1 RES1   0.0000
    56 H12      -7.3615   -2.1464   -2.9733   H         1 RES1   0.0000
    57 H13      -5.9580   -2.5216   -3.9820   H         1 RES1   0.0000
    58 H14      -4.5074   -2.6025   -2.1873   H         1 RES1   0.0000
    59 H15      -5.7214   -3.3874   -1.1574   H         1 RES1   0.0000
    60 H16      -5.2528   -1.4236   -0.0425   H         1 RES1   0.0000
    61 H17      -6.7876   -1.0894   -0.8725   H         1 RES1   0.0000
    62 H18      -6.5746   -0.0413   -3.0297   H         1 RES1   0.0000
    63 H19      -5.3138    1.1706   -3.2496   H         1 RES1   0.0000
    64 H20      -6.2202    2.5744   -1.5125   H         1 RES1   0.0000
    65 H21      -7.2477    1.2915   -0.9005   H         1 RES1   0.0000
    66 H22      -8.5136    3.0037   -2.1768   H         1 RES1   0.0000
    67 H23      -8.7145    1.3709   -2.7868   H         1 RES1   0.0000
    68 H24      -7.0953    1.8425   -4.6149   H         1 RES1   0.0000
    69 H25      -6.8939    3.4927   -4.0119   H         1 RES1   0.0000
    70 H26      -9.2739    3.9548   -4.4653   H         1 RES1   0.0000
    71 H27      -9.5289    2.2866   -4.9860   H         1 RES1   0.0000
    72 H28      -7.4879    4.1216   -6.3009   H         1 RES1   0.0000
    73 H29      -9.1687    4.0558   -6.8271   H         1 RES1   0.0000
    74 H30      -8.9677    1.7043   -7.4134   H         1 RES1   0.0000
    75 H31      -7.3264    1.6310   -6.7716   H         1 RES1   0.0000
    76 H32      -8.2140    3.3886   -9.0984   H         1 RES1   0.0000
    77 H33      -7.2926    1.8835   -9.2444   H         1 RES1   0.0000
    78 H34      -6.5690    3.2945   -8.4696   H         1 RES1   0.0000
    79 H35      -4.0034    2.2916   -1.9684   H         1 RES1   0.0000
    80 H36      -1.8631    2.2091   -3.2207   H         1 RES1   0.0000
    81 H37      -2.7509    0.7292   -3.6134   H         1 RES1   0.0000
    82 H38      -1.4278    0.6587   -2.4353   H         1 RES1   0.0000
    83 H39      -3.7356    3.5340    0.0733   H         1 RES1   0.0000
    84 H40      -1.2868    4.2428   -1.6527   H         1 RES1   0.0000
    85 H41      -2.5243    5.3748   -1.1168   H         1 RES1   0.0000
    86 H42      -2.9557    4.1286   -2.2717   H         1 RES1   0.0000
    87 H43      -0.8736    3.7366    3.2438   H         1 RES1   0.0000
    88 H44      -1.8801    5.1286    3.7144   H         1 RES1   0.0000
    89 H45       0.3704    5.7085    4.0862   H         1 RES1   0.0000
    90 H46      -0.1505    6.6542    2.7025   H         1 RES1   0.0000
    91 H47       1.1408    5.3334    1.1725   H         1 RES1   0.0000
    92 H48       1.3311    4.0448    2.3637   H         1 RES1   0.0000
    93 H49       3.4337    5.2091    2.4556   H         1 RES1   0.0000
    94 H50       2.5250    5.7904    3.8425   H         1 RES1   0.0000
    95 H51       1.8520    7.7954    2.4263   H         1 RES1   0.0000
    96 H52       3.0166    7.2359    1.2239   H         1 RES1   0.0000
    97 H53       3.5615    8.0491    4.1118   H         1 RES1   0.0000
    98 H54       4.0049    8.9208    2.6532   H         1 RES1   0.0000
    99 H55       6.0293    7.9542    3.0253   H         1 RES1   0.0000
   100 H56       5.3283    6.6164    2.1319   H         1 RES1   0.0000
   101 H57       5.5334    6.9125    5.1690   H         1 RES1   0.0000
   102 H58       6.4433    5.7951    4.1543   H         1 RES1   0.0000
   103 H59       4.7165    5.5594    4.3910   H         1 RES1   0.0000
   104 H60      -3.4402    5.8131    2.3831   H         1 RES1   0.0000
   105 H61      -3.4568    5.5386    0.6454   H         1 RES1   0.0000
   106 H62      -1.8836    7.5638    2.2581   H         1 RES1   0.0000
   107 H63      -3.0794    7.8273    1.0261   H         1 RES1   0.0000
   108 H64      -0.6840    6.3876    0.0174   H         1 RES1   0.0000
   109 H65      -0.3299    7.9771    0.6640   H         1 RES1   0.0000
   110 H66      -2.5133    7.5889   -1.3882   H         1 RES1   0.0000
   111 H67      -0.8319    7.8355   -1.8280   H         1 RES1   0.0000
   112 H68      -2.1516    9.8250    0.0276   H         1 RES1   0.0000
   113 H69      -2.5202    9.8506   -1.6908   H         1 RES1   0.0000
   114 H70      -0.8323   11.4063   -1.4510   H         1 RES1   0.0000
   115 H71      -0.0456   10.0176   -2.1652   H         1 RES1   0.0000
   116 H72       0.0887   10.0650    0.8103   H         1 RES1   0.0000
   117 H73       0.8497   11.4453    0.0561   H         1 RES1   0.0000
   118 H74       1.5394    8.5491   -0.6149   H         1 RES1   0.0000
   119 H75       2.4867    9.6495    0.3912   H         1 RES1   0.0000
   120 H76       2.2768    9.9853   -1.3236   H         1 RES1   0.0000
   121 C39       0.2468    3.9105   -5.6221   C.3       1 RES1   0.0000
   122 C40       0.1831    3.6449   -7.1228   C.3       1 RES1   0.0000
   123 C41       1.2655    2.6835   -7.6152   C.3       1 RES1   0.0000
   124 C42       2.7022    3.2124   -7.5201   C.3       1 RES1   0.0000
   125 C43       3.4565    2.9583   -6.2071   C.3       1 RES1   0.0000
   126 C44       3.5696    1.4706   -5.8703   C.3       1 RES1   0.0000
   127 C45       4.5907    1.1432   -4.7755   C.3       1 RES1   0.0000
   128 C46       4.1568    1.3268   -3.3114   C.3       1 RES1   0.0000
   129 N3        2.9593    0.5906   -2.8930   N.am      1 RES1   0.0000
   130 C47       2.8153   -0.7885   -3.3695   C.3       1 RES1   0.0000
   131 C48       1.4835   -1.1162   -4.0511   C.3       1 RES1   0.0000
   132 C49       1.6565   -2.1932   -5.1286   C.3       1 RES1   0.0000
   133 C50       2.1405   -3.5492   -4.5827   C.3       1 RES1   0.0000
   134 C51       3.5745   -3.8679   -5.0207   C.3       1 RES1   0.0000
   135 C52       4.2776   -4.8796   -4.1188   C.3       1 RES1   0.0000
   136 C53       4.6962   -4.3025   -2.7657   C.3       1 RES1   0.0000
   137 C54       5.8593   -3.3224   -2.8694   C.3       1 RES1   0.0000
   138 C55       2.1475    0.9945   -1.9256   C.2       1 RES1   0.0000
   139 O4        1.1295    0.3457   -1.5938   O.2       1 RES1   0.0000
   140 C56       2.3976    2.2873   -1.1353   C.3       1 RES1   0.0000
   141 C57       1.6741    3.4521   -1.8048   C.3       1 RES1   0.0000
   142 O5        1.8225    2.1248    0.1715   O.3       1 RES1   0.0000
   143 C58       2.7453    1.6616    1.1876   C.3       1 RES1   0.0000
   144 C59       3.9299    2.6173    1.3313   C.3       1 RES1   0.0000
   145 C60       1.8530    1.2175    2.3859   C.2       1 RES1   0.0000
   146 O6        0.8734    0.5217    2.0373   O.2       1 RES1   0.0000
   147 N4        2.1070    1.3372    3.6926   N.am      1 RES1   0.0000
   148 C61       1.5348    0.2684    4.5336   C.3       1 RES1   0.0000
   149 C62       0.0130    0.1847    4.7415   C.3       1 RES1   0.0000
   150 C63      -0.6449    1.3027    5.5442   C.3       1 RES1   0.0000
   151 C64      -2.0868    0.9610    5.9307   C.3       1 RES1   0.0000
   152 C65      -2.9772    0.6847    4.7211   C.3       1 RES1   0.0000
   153 C66      -4.4572    0.6452    5.0945   C.3       1 RES1   0.0000
   154 C67      -5.3496    0.1590    3.9509   C.3       1 RES1   0.0000
   155 C68      -5.2714    1.0191    2.6931   C.3       1 RES1   0.0000
   156 C69       3.1246    2.2076    4.2985   C.3       1 RES1   0.0000
   157 C70       2.9057    2.6742    5.7471   C.3       1 RES1   0.0000
   158 C71       1.8261    3.7377    5.9441   C.3       1 RES1   0.0000
   159 C72       1.6381    4.1027    7.4226   C.3       1 RES1   0.0000
   160 C73       0.2497    4.6517    7.7689   C.3       1 RES1   0.0000
   161 C74      -0.2342    5.8263    6.9163   C.3       1 RES1   0.0000
   162 C75       0.6890    7.0447    6.9331   C.3       1 RES1   0.0000
   163 C76       0.1180    8.1857    6.0997   C.3       1 RES1   0.0000
   164 H77      -0.6551    4.4193   -5.2835   H         1 RES1   0.0000
   165 H78       1.0948    4.5476   -5.3823   H         1 RES1   0.0000
   166 H79       0.3448    2.9716   -5.0726   H         1 RES1   0.0000
   167 H80       0.2570    4.5925   -7.6598   H         1 RES1   0.0000
   168 H81      -0.7914    3.2137   -7.3612   H         1 RES1   0.0000
   169 H82       1.0590    2.4767   -8.6660   H         1 RES1   0.0000
   170 H83       1.1737    1.7335   -7.0851   H         1 RES1   0.0000
   171 H84       2.6900    4.2867   -7.7163   H         1 RES1   0.0000
   172 H85       3.2878    2.7540   -8.3204   H         1 RES1   0.0000
   173 H86       2.9985    3.4983   -5.3786   H         1 RES1   0.0000
   174 H87       4.4610    3.3644   -6.3466   H         1 RES1   0.0000
   175 H88       3.9050    0.9588   -6.7738   H         1 RES1   0.0000
   176 H89       2.5925    1.0678   -5.6022   H         1 RES1   0.0000
   177 H90       5.4637    1.7838   -4.9168   H         1 RES1   0.0000
   178 H91       4.9410    0.1208   -4.9241   H         1 RES1   0.0000
   179 H92       4.0078    2.3880   -3.1212   H         1 RES1   0.0000
   180 H93       4.9949    0.9820   -2.6930   H         1 RES1   0.0000
   181 H94       2.9468   -1.4441   -2.5042   H         1 RES1   0.0000
   182 H95       3.6201   -0.9766   -4.0716   H         1 RES1   0.0000
   183 H96       1.0682   -0.2189   -4.5145   H         1 RES1   0.0000
   184 H97       0.7857   -1.4471   -3.2839   H         1 RES1   0.0000
   185 H98       2.3694   -1.8341   -5.8732   H         1 RES1   0.0000
   186 H99       0.7071   -2.3170   -5.6528   H         1 RES1   0.0000
   187 H100      1.4808   -4.3456   -4.9335   H         1 RES1   0.0000
   188 H101      2.0753   -3.5454   -3.4925   H         1 RES1   0.0000
   189 H102      4.1587   -2.9486   -5.0386   H         1 RES1   0.0000
   190 H103      3.5547   -4.2496   -6.0422   H         1 RES1   0.0000
   191 H104      5.1719   -5.2387   -4.6262   H         1 RES1   0.0000
   192 H105      3.6204   -5.7360   -3.9597   H         1 RES1   0.0000
   193 H106      4.9943   -5.1265   -2.1144   H         1 RES1   0.0000
   194 H107      3.8458   -3.8015   -2.2948   H         1 RES1   0.0000
   195 H108      6.7428   -3.8214   -3.2567   H         1 RES1   0.0000
   196 H109      6.0991   -2.9107   -1.8913   H         1 RES1   0.0000
   197 H110      5.6226   -2.4973   -3.5361   H         1 RES1   0.0000
   198 H111      3.4651    2.4931   -1.0532   H         1 RES1   0.0000
   199 H112      0.6035    3.2636   -1.7247   H         1 RES1   0.0000
   200 H113      1.9525    3.5436   -2.8513   H         1 RES1   0.0000
   201 H114      1.9105    4.3807   -1.2920   H         1 RES1   0.0000
   202 H115      3.1370    0.6805    0.8577   H         1 RES1   0.0000
   203 H116      3.5950    3.6486    1.3314   H         1 RES1   0.0000
   204 H117      4.4963    2.4163    2.2300   H         1 RES1   0.0000
   205 H118      4.6265    2.4953    0.5003   H         1 RES1   0.0000
   206 H119      2.0132    0.3374    5.5058   H         1 RES1   0.0000
   207 H120      1.8357   -0.6831    4.0744   H         1 RES1   0.0000
   208 H121     -0.1467   -0.7402    5.3029   H         1 RES1   0.0000
   209 H122     -0.4785    0.0889    3.7705   H         1 RES1   0.0000
   210 H123     -0.6567    2.2257    4.9599   H         1 RES1   0.0000
   211 H124     -0.0720    1.4707    6.4574   H         1 RES1   0.0000
   212 H125     -2.4969    1.8030    6.4891   H         1 RES1   0.0000
   213 H126     -2.1028    0.0958    6.5967   H         1 RES1   0.0000
   214 H127     -2.7095   -0.2798    4.2862   H         1 RES1   0.0000
   215 H128     -2.8051    1.4573    3.9661   H         1 RES1   0.0000
   216 H129     -4.7805    1.6367    5.4181   H         1 RES1   0.0000
   217 H130     -4.5881   -0.0338    5.9402   H         1 RES1   0.0000
   218 H131     -6.3804    0.1561    4.3066   H         1 RES1   0.0000
   219 H132     -5.0869   -0.8727    3.7003   H         1 RES1   0.0000
   220 H133     -5.4641    2.0612    2.9353   H         1 RES1   0.0000
   221 H134     -6.0238    0.6931    1.9788   H         1 RES1   0.0000
   222 H135     -4.2930    0.9472    2.2184   H         1 RES1   0.0000
   223 H136      3.1955    3.1040    3.6892   H         1 RES1   0.0000
   224 H137      4.0870    1.6802    4.2861   H         1 RES1   0.0000
   225 H138      3.8578    3.0984    6.0711   H         1 RES1   0.0000
   226 H139      2.7130    1.8333    6.4099   H         1 RES1   0.0000
   227 H140      0.8867    3.3796    5.5353   H         1 RES1   0.0000
   228 H141      2.1065    4.6329    5.3917   H         1 RES1   0.0000
   229 H142      2.3989    4.8246    7.7147   H         1 RES1   0.0000
   230 H143      1.7941    3.2157    8.0381   H         1 RES1   0.0000
   231 H144      0.2647    4.9622    8.8146   H         1 RES1   0.0000
   232 H145     -0.4843    3.8455    7.6788   H         1 RES1   0.0000
   233 H146     -1.2132    6.1364    7.2915   H         1 RES1   0.0000
   234 H147     -0.3812    5.4871    5.8869   H         1 RES1   0.0000
   235 H148      1.6740    6.7760    6.5450   H         1 RES1   0.0000
   236 H149      0.8203    7.3755    7.9650   H         1 RES1   0.0000
   237 H150      0.0326    7.8926    5.0558   H         1 RES1   0.0000
   238 H151      0.7611    9.0578    6.1557   H         1 RES1   0.0000
   239 H152     -0.8672    8.4638    6.4628   H         1 RES1   0.0000
   240 C77      -3.7650    3.1746   -6.8421   C.3       1 RES1   0.0000
   241 C78      -3.4626    2.2829   -5.6482   C.3       1 RES1   0.0000
   242 C79      -3.6699    0.7921   -5.9621   C.3       1 RES1   0.0000
   243 C80      -2.3459    0.0195   -6.0463   C.3       1 RES1   0.0000
   244 C81      -2.5597   -1.4899   -5.9468   C.3       1 RES1   0.0000
   245 C82      -2.9106   -2.0295   -4.5490   C.3       1 RES1   0.0000
   246 C83      -1.6860   -2.2671   -3.6533   C.3       1 RES1   0.0000
   247 C84      -1.7266   -3.5112   -2.7460   C.3       1 RES1   0.0000
   248 N5       -2.1380   -3.3510   -1.3348   N.am      1 RES1   0.0000
   249 C85      -3.0514   -4.3442   -0.7858   C.3       1 RES1   0.0000
   250 C86      -2.4148   -5.6022   -0.1818   C.3       1 RES1   0.0000
   251 C87      -3.4373   -6.3152    0.7188   C.3       1 RES1   0.0000
   252 C88      -3.7723   -5.5594    2.0107   C.3       1 RES1   0.0000
   253 C89      -5.0248   -6.0904    2.7369   C.3       1 RES1   0.0000
   254 C90      -6.1779   -5.0816    2.7641   C.3       1 RES1   0.0000
   255 C91      -6.8539   -4.8865    1.4092   C.3       1 RES1   0.0000
   256 C92      -8.0031   -3.8886    1.4947   C.3       1 RES1   0.0000
   257 C93      -1.5323   -2.4667   -0.5542   C.2       1 RES1   0.0000
   258 O7       -0.7635   -1.5953   -1.0101   O.2       1 RES1   0.0000
   259 C94      -1.5920   -2.5883    0.9934   C.3       1 RES1   0.0000
   260 C95      -2.6004   -1.7246    1.7527   C.3       1 RES1   0.0000
   261 O8       -0.3055   -2.1376    1.4201   O.3       1 RES1   0.0000
   262 C96       0.5834   -3.1577    1.8896   C.3       1 RES1   0.0000
   263 C97       0.3902   -3.3100    3.4015   C.3       1 RES1   0.0000
   264 C98       1.9835   -2.7384    1.4000   C.2       1 RES1   0.0000
   265 O9        2.0590   -1.6783    0.7655   O.2       1 RES1   0.0000
   266 N6        3.0189   -3.5738    1.5886   N.am      1 RES1   0.0000
   267 C99       4.2426   -3.3290    0.8238   C.3       1 RES1   0.0000
   268 C100      5.3503   -2.5885    1.5704   C.3       1 RES1   0.0000
   269 C101      5.0931   -1.0898    1.6355   C.3       1 RES1   0.0000
   270 C102      6.2722   -0.3092    2.2123   C.3       1 RES1   0.0000
   271 C103      6.4245   -0.4371    3.7252   C.3       1 RES1   0.0000
   272 C104      7.5322    0.4545    4.2937   C.3       1 RES1   0.0000
   273 C105      7.2820    1.9681    4.2437   C.3       1 RES1   0.0000
   274 C106      7.8099    2.6784    3.0015   C.3       1 RES1   0.0000
   275 C107      2.9736   -4.8957    2.2265   C.3       1 RES1   0.0000
   276 C108      3.9883   -5.1180    3.3679   C.3       1 RES1   0.0000
   277 C109      3.8745   -4.1916    4.5894   C.3       1 RES1   0.0000
   278 C110      2.9394   -4.7046    5.6999   C.3       1 RES1   0.0000
   279 C111      3.6463   -5.3796    6.8877   C.3       1 RES1   0.0000
   280 C112      3.9983   -4.4613    8.0650   C.3       1 RES1   0.0000
   281 C113      5.1258   -3.4522    7.8156   C.3       1 RES1   0.0000
   282 C114      4.6345   -2.0918    7.3340   C.3       1 RES1   0.0000
   283 H153     -3.5174    4.2104   -6.6278   H         1 RES1   0.0000
   284 H154     -4.8168    3.1194   -7.0990   H         1 RES1   0.0000
   285 H155     -3.1795    2.8521   -7.6966   H         1 RES1   0.0000
   286 H156     -4.0903    2.5894   -4.8039   H         1 RES1   0.0000
   287 H157     -2.4203    2.4370   -5.3631   H         1 RES1   0.0000
   288 H158     -4.1715    0.6941   -6.9243   H         1 RES1   0.0000
   289 H159     -4.3410    0.3318   -5.2324   H         1 RES1   0.0000
   290 H160     -1.6299    0.3492   -5.2889   H         1 RES1   0.0000
   291 H161     -1.8920    0.2431   -7.0101   H         1 RES1   0.0000
   292 H162     -1.6705   -2.0058   -6.3130   H         1 RES1   0.0000
   293 H163     -3.3735   -1.7498   -6.6251   H         1 RES1   0.0000
   294 H164     -3.4090   -2.9837   -4.7119   H         1 RES1   0.0000
   295 H165     -3.6256   -1.3608   -4.0636   H         1 RES1   0.0000
   296 H166     -1.4713   -1.3908   -3.0517   H         1 RES1   0.0000
   297 H167     -0.8378   -2.4266   -4.3165   H         1 RES1   0.0000
   298 H168     -0.7171   -3.9412   -2.7217   H         1 RES1   0.0000
   299 H169     -2.3815   -4.2555   -3.1986   H         1 RES1   0.0000
   300 H170     -3.7040   -4.6658   -1.5950   H         1 RES1   0.0000
   301 H171     -3.6739   -3.8522   -0.0384   H         1 RES1   0.0000
   302 H172     -1.5155   -5.3671    0.3896   H         1 RES1   0.0000
   303 H173     -2.1051   -6.2787   -0.9790   H         1 RES1   0.0000
   304 H174     -3.0424   -7.2978    0.9816   H         1 RES1   0.0000
   305 H175     -4.3564   -6.4728    0.1546   H         1 RES1   0.0000
   306 H176     -3.9491   -4.5020    1.7996   H         1 RES1   0.0000
   307 H177     -2.9111   -5.6186    2.6813   H         1 RES1   0.0000
   308 H178     -4.7639   -6.3262    3.7685   H         1 RES1   0.0000
   309 H179     -5.3670   -7.0144    2.2683   H         1 RES1   0.0000
   310 H180     -5.8110   -4.1180    3.1324   H         1 RES1   0.0000
   311 H181     -6.9295   -5.4320    3.4716   H         1 RES1   0.0000
   312 H182     -7.2395   -5.8454    1.0604   H         1 RES1   0.0000
   313 H183     -6.1224   -4.5352    0.6752   H         1 RES1   0.0000
   314 H184     -8.7438   -4.2300    2.2132   H         1 RES1   0.0000
   315 H185     -8.4946   -3.7803    0.5303   H         1 RES1   0.0000
   316 H186     -7.6414   -2.9129    1.8170   H         1 RES1   0.0000
   317 H187     -1.7351   -3.6335    1.2790   H         1 RES1   0.0000
   318 H188     -2.5033   -1.9581    2.8104   H         1 RES1   0.0000
   319 H189     -3.6191   -1.9192    1.4340   H         1 RES1   0.0000
   320 H190     -2.3738   -0.6531    1.5931   H         1 RES1   0.0000
   321 H191      0.3601   -4.0988    1.3673   H         1 RES1   0.0000
   322 H192      0.1078   -2.3415    3.8026   H         1 RES1   0.0000
   323 H193      1.2946   -3.6376    3.8995   H         1 RES1   0.0000
   324 H194     -0.4125   -4.0135    3.6199   H         1 RES1   0.0000
   325 H195      3.9554   -2.7514   -0.0587   H         1 RES1   0.0000
   326 H196      4.6147   -4.2984    0.4877   H         1 RES1   0.0000
   327 H197      6.2832   -2.7673    1.0319   H         1 RES1   0.0000
   328 H198      5.4572   -2.9807    2.5784   H         1 RES1   0.0000
   329 H199      4.1953   -0.8981    2.2295   H         1 RES1   0.0000
   330 H200      4.8980   -0.7378    0.6177   H         1 RES1   0.0000
   331 H201      6.1376    0.7409    1.9635   H         1 RES1   0.0000
   332 H202      7.1931   -0.6436    1.7313   H         1 RES1   0.0000
   333 H203      6.6655   -1.4725    3.9740   H         1 RES1   0.0000
   334 H204      5.4738   -0.2048    4.2172   H         1 RES1   0.0000
   335 H205      8.4636    0.2274    3.7762   H         1 RES1   0.0000
   336 H206      7.6639    0.1686    5.3380   H         1 RES1   0.0000
   337 H207      7.7806    2.4180    5.1022   H         1 RES1   0.0000
   338 H208      6.2145    2.1732    4.3605   H         1 RES1   0.0000
   339 H209      8.8916    2.6016    2.9544   H         1 RES1   0.0000
   340 H210      7.5458    3.7329    3.0384   H         1 RES1   0.0000
   341 H211      7.4078    2.2695    2.0804   H         1 RES1   0.0000
   342 H212      3.2072   -5.6406    1.4534   H         1 RES1   0.0000
   343 H213      1.9703   -5.1087    2.5828   H         1 RES1   0.0000
   344 H214      4.9918   -5.0292    2.9536   H         1 RES1   0.0000
   345 H215      3.8744   -6.1531    3.7005   H         1 RES1   0.0000
   346 H216      3.5611   -3.1970    4.2585   H         1 RES1   0.0000
   347 H217      4.8698   -4.0769    5.0158   H         1 RES1   0.0000
   348 H218      2.2424   -5.4249    5.2673   H         1 RES1   0.0000
   349 H219      2.3461   -3.8777    6.0938   H         1 RES1   0.0000
   350 H220      4.5483   -5.8905    6.5476   H         1 RES1   0.0000
   351 H221      2.9749   -6.1460    7.2812   H         1 RES1   0.0000
   352 H222      4.2960   -5.1097    8.8908   H         1 RES1   0.0000
   353 H223      3.0979   -3.9355    8.3912   H         1 RES1   0.0000
   354 H224      5.8328   -3.8701    7.0965   H         1 RES1   0.0000
   355 H225      5.6755   -3.2982    8.7456   H         1 RES1   0.0000
   356 H226      4.0620   -2.1776    6.4141   H         1 RES1   0.0000
   357 H227      5.4827   -1.4367    7.1513   H         1 RES1   0.0000
   358 H228      4.0047   -1.6315    8.0927   H         1 RES1   0.0000
@<TRIPOS>BOND
     1     1    20    1
     2     1    23    1
     3     1    27    1
     4     1   139    1
     5     1   142    1
     6     1   146    1
     7     1   258    1
     8     1   261    1
     9     1   265    1
    10     2     3    1
    11     2    45    1
    12     2    46    1
    13     2    47    1
    14     3     4    1
    15     3    48    1
    16     3    49    1
    17     4     5    1
    18     4    50    1
    19     4    51    1
    20     5     6    1
    21     5    52    1
    22     5    53    1
    23     6     7    1
    24     6    54    1
    25     6    55    1
    26     7     8    1
    27     7    56    1
    28     7    57    1
    29     8     9    1
    30     8    58    1
    31     8    59    1
    32     9    10    1
    33     9    60    1
    34     9    61    1
    35    10    11    1
    36    10    19    1
    37    11    12    1
    38    11    62    1
    39    11    63    1
    40    12    13    1
    41    12    64    1
    42    12    65    1
    43    13    14    1
    44    13    66    1
    45    13    67    1
    46    14    15    1
    47    14    68    1
    48    14    69    1
    49    15    16    1
    50    15    70    1
    51    15    71    1
    52    16    17    1
    53    16    72    1
    54    16    73    1
    55    17    18    1
    56    17    74    1
    57    17    75    1
    58    18    76    1
    59    18    77    1
    60    18    78    1
    61    19    20    2
    62    19    21    1
    63    21    22    1
    64    21    23    1
    65    21    79    1
    66    22    80    1
    67    22    81    1
    68    22    82    1
    69    23    24    1
    70    24    25    1
    71    24    26    1
    72    24    83    1
    73    25    84    1
    74    25    85    1
    75    25    86    1
    76    26    27    2
    77    26    28    1
    78    28    29    1
    79    28    37    1
    80    29    30    1
    81    29    87    1
    82    29    88    1
    83    30    31    1
    84    30    89    1
    85    30    90    1
    86    31    32    1
    87    31    91    1
    88    31    92    1
    89    32    33    1
    90    32    93    1
    91    32    94    1
    92    33    34    1
    93    33    95    1
    94    33    96    1
    95    34    35    1
    96    34    97    1
    97    34    98    1
    98    35    36    1
    99    35    99    1
   100    35   100    1
   101    36   101    1
   102    36   102    1
   103    36   103    1
   104    37    38    1
   105    37   104    1
   106    37   105    1
   107    38    39    1
   108    38   106    1
   109    38   107    1
   110    39    40    1
   111    39   108    1
   112    39   109    1
   113    40    41    1
   114    40   110    1
   115    40   111    1
   116    41    42    1
   117    41   112    1
   118    41   113    1
   119    42    43    1
   120    42   114    1
   121    42   115    1
   122    43    44    1
   123    43   116    1
   124    43   117    1
   125    44   118    1
   126    44   119    1
   127    44   120    1
   128   121   122    1
   129   121   164    1
   130   121   165    1
   131   121   166    1
   132   122   123    1
   133   122   167    1
   134   122   168    1
   135   123   124    1
   136   123   169    1
   137   123   170    1
   138   124   125    1
   139   124   171    1
   140   124   172    1
   141   125   126    1
   142   125   173    1
   143   125   174    1
   144   126   127    1
   145   126   175    1
   146   126   176    1
   147   127   128    1
   148   127   177    1
   149   127   178    1
   150   128   129    1
   151   128   179    1
   152   128   180    1
   153   129   130    1
   154   129   138    1
   155   130   131    1
   156   130   181    1
   157   130   182    1
   158   131   132    1
   159   131   183    1
   160   131   184    1
   161   132   133    1
   162   132   185    1
   163   132   186    1
   164   133   134    1
   165   133   187    1
   166   133   188    1
   167   134   135    1
   168   134   189    1
   169   134   190    1
   170   135   136    1
   171   135   191    1
   172   135   192    1
   173   136   137    1
   174   136   193    1
   175   136   194    1
   176   137   195    1
   177   137   196    1
   178   137   197    1
   179   138   139    2
   180   138   140    1
   181   140   141    1
   182   140   142    1
   183   140   198    1
   184   141   199    1
   185   141   200    1
   186   141   201    1
   187   142   143    1
   188   143   144    1
   189   143   145    1
   190   143   202    1
   191   144   203    1
   192   144   204    1
   193   144   205    1
   194   145   146    2
   195   145   147    1
   196   147   148    1
   197   147   156    1
   198   148   149    1
   199   148   206    1
   200   148   207    1
   201   149   150    1
   202   149   208    1
   203   149   209    1
   204   150   151    1
   205   150   210    1
   206   150   211    1
   207   151   152    1
   208   151   212    1
   209   151   213    1
   210   152   153    1
   211   152   214    1
   212   152   215    1
   213   153   154    1
   214   153   216    1
   215   153   217    1
   216   154   155    1
   217   154   218    1
   218   154   219    1
   219   155   220    1
   220   155   221    1
   221   155   222    1
   222   156   157    1
   223   156   223    1
   224   156   224    1
   225   157   158    1
   226   157   225    1
   227   157   226    1
   228   158   159    1
   229   158   227    1
   230   158   228    1
   231   159   160    1
   232   159   229    1
   233   159   230    1
   234   160   161    1
   235   160   231    1
   236   160   232    1
   237   161   162    1
   238   161   233    1
   239   161   234    1
   240   162   163    1
   241   162   235    1
   242   162   236    1
   243   163   237    1
   244   163   238    1
   245   163   239    1
   246   240   241    1
   247   240   283    1
   248   240   284    1
   249   240   285    1
   250   241   242    1
   251   241   286    1
   252   241   287    1
   253   242   243    1
   254   242   288    1
   255   242   289    1
   256   243   244    1
   257   243   290    1
   258   243   291    1
   259   244   245    1
   260   244   292    1
   261   244   293    1
   262   245   246    1
   263   245   294    1
   264   245   295    1
   265   246   247    1
   266   246   296    1
   267   246   297    1
   268   247   248    1
   269   247   298    1
   270   247   299    1
   271   248   249    1
   272   248   257    1
   273   249   250    1
   274   249   300    1
   275   249   301    1
   276   250   251    1
   277   250   302    1
   278   250   303    1
   279   251   252    1
   280   251   304    1
   281   251   305    1
   282   252   253    1
   283   252   306    1
   284   252   307    1
   285   253   254    1
   286   253   308    1
   287   253   309    1
   288   254   255    1
   289   254   310    1
   290   254   311    1
   291   255   256    1
   292   255   312    1
   293   255   313    1
   294   256   314    1
   295   256   315    1
   296   256   316    1
   297   257   258    2
   298   257   259    1
   299   259   260    1
   300   259   261    1
   301   259   317    1
   302   260   318    1
   303   260   319    1
   304   260   320    1
   305   261   262    1
   306   262   263    1
   307   262   264    1
   308   262   321    1
   309   263   322    1
   310   263   323    1
   311   263   324    1
   312   264   265    2
   313   264   266    1
   314   266   267    1
   315   266   275    1
   316   267   268    1
   317   267   325    1
   318   267   326    1
   319   268   269    1
   320   268   327    1
   321   268   328    1
   322   269   270    1
   323   269   329    1
   324   269   330    1
   325   270   271    1
   326   270   331    1
   327   270   332    1
   328   271   272    1
   329   271   333    1
   330   271   334    1
   331   272   273    1
   332   272   335    1
   333   272   336    1
   334   273   274    1
   335   273   337    1
   336   273   338    1
   337   274   339    1
   338   274   340    1
   339   274   341    1
   340   275   276    1
   341   275   342    1
   342   275   343    1
   343   276   277    1
   344   276   344    1
   345   276   345    1
   346   277   278    1
   347   277   346    1
   348   277   347    1
   349   278   279    1
   350   278   348    1
   351   278   349    1
   352   279   280    1
   353   279   350    1
   354   279   351    1
   355   280   281    1
   356   280   352    1
   357   280   353    1
   358   281   282    1
   359   281   354    1
   360   281   355    1
   361   282   356    1
   362   282   357    1
   363   282   358    1
@<TRIPOS>SUBSTRUCTURE
     1 RES1      358 GROUP             0 ****  ****    0  
