@<TRIPOS>MOLECULE
tricapped_trigonal_prismatic_0_nunpairedes_0_charge_3 Charge: 3 Unpaired_Electrons: 2 XTB_Unpaired_Electrons: 0 XTB_Charge: 3
   448   453     1     0     0
SMALL
NoCharges
****
Generated from Architector

@<TRIPOS>ATOM
     1 Pr1      -0.0049   -0.0687    0.1412   Pr        1 RES1   0.0000
     2 C1       -0.3092    1.3874   -7.5071   C.3       1 RES1   0.0000
     3 C2       -1.8155    1.2074   -7.6710   C.3       1 RES1   0.0000
     4 C3       -2.5317    2.4333   -8.2431   C.3       1 RES1   0.0000
     5 C4       -2.4495    3.7016   -7.3894   C.3       1 RES1   0.0000
     6 C5       -3.5068    3.8539   -6.2887   C.3       1 RES1   0.0000
     7 C6       -3.5740    2.7579   -5.2193   C.3       1 RES1   0.0000
     8 C7       -2.2782    2.4936   -4.4525   C.3       1 RES1   0.0000
     9 C8       -1.9886    3.6106   -3.4572   C.3       1 RES1   0.0000
    10 N1       -0.6081    3.6197   -2.9766   N.am      1 RES1   0.0000
    11 C9        0.2709    4.6359   -3.5559   C.3       1 RES1   0.0000
    12 C10       0.4403    4.4951   -5.0705   C.3       1 RES1   0.0000
    13 C11       1.6215    5.2872   -5.6481   C.3       1 RES1   0.0000
    14 C12       1.5520    6.8265   -5.5492   C.3       1 RES1   0.0000
    15 C13       0.1352    7.3567   -5.7943   C.3       1 RES1   0.0000
    16 C14       0.0882    8.8719   -5.9942   C.3       1 RES1   0.0000
    17 C15      -1.2568    9.3577   -6.5357   C.3       1 RES1   0.0000
    18 C16      -2.4150    9.0884   -5.5793   C.3       1 RES1   0.0000
    19 C17       2.1399    7.3657   -4.2393   C.3       1 RES1   0.0000
    20 C18       3.6550    7.1955   -4.1607   C.3       1 RES1   0.0000
    21 C19       4.2712    7.8368   -2.9175   C.3       1 RES1   0.0000
    22 C20       3.7201    7.3132   -1.5921   C.3       1 RES1   0.0000
    23 C21       3.8592    5.8019   -1.4401   C.3       1 RES1   0.0000
    24 C22       3.3295    5.3361   -0.0895   C.3       1 RES1   0.0000
    25 C23      -0.2576    2.7558   -2.0328   C.2       1 RES1   0.0000
    26 O1       -0.9989    1.8653   -1.5767   O.2       1 RES1   0.0000
    27 C24       1.1450    2.8332   -1.4255   C.3       1 RES1   0.0000
    28 O2        1.1113    2.2848   -0.1089   O.3       1 RES1   0.0000
    29 C25       0.7548    3.2453    0.8779   C.3       1 RES1   0.0000
    30 C26      -0.3871    2.7586    1.7733   C.2       1 RES1   0.0000
    31 O3       -0.7989    1.5863    1.6677   O.2       1 RES1   0.0000
    32 N2       -0.8953    3.6368    2.6291   N.am      1 RES1   0.0000
    33 C27      -2.0243    3.2501    3.4812   C.3       1 RES1   0.0000
    34 C28      -3.3211    3.0029    2.7098   C.3       1 RES1   0.0000
    35 C29      -3.8382    4.2160    1.9419   C.3       1 RES1   0.0000
    36 C30      -5.1079    3.9060    1.1523   C.3       1 RES1   0.0000
    37 C31      -4.9262    2.7594    0.1639   C.3       1 RES1   0.0000
    38 C32      -6.1532    2.6080   -0.7243   C.3       1 RES1   0.0000
    39 C33      -6.1201    1.3440   -1.5771   C.3       1 RES1   0.0000
    40 C34      -6.3887    0.0897   -0.7503   C.3       1 RES1   0.0000
    41 C35      -0.2904    4.9285    2.9360   C.3       1 RES1   0.0000
    42 C36      -1.0290    6.1508    2.3750   C.3       1 RES1   0.0000
    43 C37      -0.9559    6.2321    0.8519   C.3       1 RES1   0.0000
    44 C38      -1.9732    7.1346    0.1391   C.3       1 RES1   0.0000
    45 C39      -1.8334    6.8222   -1.3601   C.3       1 RES1   0.0000
    46 C40      -2.9980    7.2516   -2.2464   C.3       1 RES1   0.0000
    47 C41      -4.3054    6.5214   -1.9429   C.3       1 RES1   0.0000
    48 C42      -5.3558    6.8121   -3.0103   C.3       1 RES1   0.0000
    49 C43      -1.7499    8.6323    0.3634   C.3       1 RES1   0.0000
    50 C44      -2.1075    9.2301    1.7262   C.3       1 RES1   0.0000
    51 C45      -3.5982    9.4276    2.0072   C.3       1 RES1   0.0000
    52 C46      -4.3609    8.1585    2.3781   C.3       1 RES1   0.0000
    53 C47      -5.7804    8.4577    2.8570   C.3       1 RES1   0.0000
    54 C48      -6.5554    7.1788    3.1663   C.3       1 RES1   0.0000
    55 H1        0.1514    0.4590   -7.1760   H         1 RES1   0.0000
    56 H2       -0.0728    2.1525   -6.7731   H         1 RES1   0.0000
    57 H3        0.1479    1.6804   -8.4463   H         1 RES1   0.0000
    58 H4       -2.2490    0.9265   -6.7110   H         1 RES1   0.0000
    59 H5       -1.9887    0.3772   -8.3581   H         1 RES1   0.0000
    60 H6       -3.5790    2.1847   -8.4216   H         1 RES1   0.0000
    61 H7       -2.0810    2.6421   -9.2147   H         1 RES1   0.0000
    62 H8       -2.5729    4.5582   -8.0543   H         1 RES1   0.0000
    63 H9       -1.4481    3.7763   -6.9731   H         1 RES1   0.0000
    64 H10      -4.4858    3.8862   -6.7700   H         1 RES1   0.0000
    65 H11      -3.3599    4.8283   -5.8151   H         1 RES1   0.0000
    66 H12      -3.8933    1.8420   -5.7083   H         1 RES1   0.0000
    67 H13      -4.3522    3.0285   -4.5019   H         1 RES1   0.0000
    68 H14      -1.4503    2.4024   -5.1453   H         1 RES1   0.0000
    69 H15      -2.3475    1.5469   -3.9121   H         1 RES1   0.0000
    70 H16      -2.6458    3.4896   -2.5946   H         1 RES1   0.0000
    71 H17      -2.1842    4.5803   -3.9088   H         1 RES1   0.0000
    72 H18       1.2632    4.5608   -3.1236   H         1 RES1   0.0000
    73 H19      -0.1384    5.6239   -3.3191   H         1 RES1   0.0000
    74 H20      -0.4735    4.8064   -5.5667   H         1 RES1   0.0000
    75 H21       0.6117    3.4402   -5.3014   H         1 RES1   0.0000
    76 H22       1.6857    5.0195   -6.7058   H         1 RES1   0.0000
    77 H23       2.5406    4.9417   -5.1698   H         1 RES1   0.0000
    78 H24       2.1787    7.2195   -6.3552   H         1 RES1   0.0000
    79 H25      -0.5093    7.0967   -4.9538   H         1 RES1   0.0000
    80 H26      -0.2641    6.8889   -6.6962   H         1 RES1   0.0000
    81 H27       0.8689    9.1655   -6.6955   H         1 RES1   0.0000
    82 H28       0.2827    9.3831   -5.0507   H         1 RES1   0.0000
    83 H29      -1.4600    8.8749   -7.4941   H         1 RES1   0.0000
    84 H30      -1.1921   10.4333   -6.7143   H         1 RES1   0.0000
    85 H31      -2.6130    8.0211   -5.4912   H         1 RES1   0.0000
    86 H32      -3.3206    9.5668   -5.9424   H         1 RES1   0.0000
    87 H33      -2.1933    9.4861   -4.5903   H         1 RES1   0.0000
    88 H34       1.6583    6.8844   -3.3893   H         1 RES1   0.0000
    89 H35       1.9334    8.4326   -4.1712   H         1 RES1   0.0000
    90 H36       4.1013    7.6658   -5.0369   H         1 RES1   0.0000
    91 H37       3.9281    6.1403   -4.1941   H         1 RES1   0.0000
    92 H38       4.1031    8.9130   -2.9537   H         1 RES1   0.0000
    93 H39       5.3497    7.6694   -2.9399   H         1 RES1   0.0000
    94 H40       2.6696    7.5919   -1.4855   H         1 RES1   0.0000
    95 H41       4.2677    7.7921   -0.7791   H         1 RES1   0.0000
    96 H42       4.9120    5.5334   -1.5374   H         1 RES1   0.0000
    97 H43       3.3163    5.2930   -2.2408   H         1 RES1   0.0000
    98 H44       3.8972    5.8006    0.7116   H         1 RES1   0.0000
    99 H45       3.4039    4.2528    0.0103   H         1 RES1   0.0000
   100 H46       2.2896    5.6402    0.0262   H         1 RES1   0.0000
   101 H47       1.5418    3.8461   -1.4010   H         1 RES1   0.0000
   102 H48       1.8071    2.1971   -2.0204   H         1 RES1   0.0000
   103 H49       0.4557    4.1720    0.3941   H         1 RES1   0.0000
   104 H50       1.6462    3.4292    1.4821   H         1 RES1   0.0000
   105 H51      -2.1776    4.0479    4.2078   H         1 RES1   0.0000
   106 H52      -1.7520    2.3335    4.0144   H         1 RES1   0.0000
   107 H53      -4.0791    2.6829    3.4264   H         1 RES1   0.0000
   108 H54      -3.1463    2.1901    2.0063   H         1 RES1   0.0000
   109 H55      -3.0692    4.5484    1.2449   H         1 RES1   0.0000
   110 H56      -4.0584    5.0280    2.6354   H         1 RES1   0.0000
   111 H57      -5.4025    4.8026    0.6052   H         1 RES1   0.0000
   112 H58      -5.9238    3.6589    1.8334   H         1 RES1   0.0000
   113 H59      -4.7711    1.8316    0.7142   H         1 RES1   0.0000
   114 H60      -4.0359    2.9307   -0.4494   H         1 RES1   0.0000
   115 H61      -6.2402    3.4847   -1.3660   H         1 RES1   0.0000
   116 H62      -7.0410    2.5798   -0.0940   H         1 RES1   0.0000
   117 H63      -5.1578    1.2833   -2.0955   H         1 RES1   0.0000
   118 H64      -6.8866    1.4170   -2.3425   H         1 RES1   0.0000
   119 H65      -5.7116    0.0283    0.0983   H         1 RES1   0.0000
   120 H66      -6.2873   -0.8163   -1.3472   H         1 RES1   0.0000
   121 H67      -7.4027    0.1187   -0.3584   H         1 RES1   0.0000
   122 H68       0.7381    4.9534    2.5831   H         1 RES1   0.0000
   123 H69      -0.2689    5.0115    4.0271   H         1 RES1   0.0000
   124 H70      -0.5525    7.0243    2.8174   H         1 RES1   0.0000
   125 H71      -2.0687    6.1365    2.6935   H         1 RES1   0.0000
   126 H72      -1.1377    5.2257    0.4624   H         1 RES1   0.0000
   127 H73       0.0489    6.5396    0.5494   H         1 RES1   0.0000
   128 H74      -2.9678    6.8415    0.4680   H         1 RES1   0.0000
   129 H75      -1.7035    5.7422   -1.4864   H         1 RES1   0.0000
   130 H76      -0.9231    7.3102   -1.7143   H         1 RES1   0.0000
   131 H77      -2.7237    7.0506   -3.2857   H         1 RES1   0.0000
   132 H78      -3.1675    8.3240   -2.1626   H         1 RES1   0.0000
   133 H79      -4.6938    6.8412   -0.9746   H         1 RES1   0.0000
   134 H80      -4.1271    5.4421   -1.8886   H         1 RES1   0.0000
   135 H81      -5.5475    7.8808   -3.0651   H         1 RES1   0.0000
   136 H82      -6.2919    6.3076   -2.7796   H         1 RES1   0.0000
   137 H83      -5.0148    6.4794   -3.9895   H         1 RES1   0.0000
   138 H84      -2.3222    9.1817   -0.3845   H         1 RES1   0.0000
   139 H85      -0.6935    8.8319    0.1650   H         1 RES1   0.0000
   140 H86      -1.6391   10.2144    1.7601   H         1 RES1   0.0000
   141 H87      -1.6709    8.6495    2.5343   H         1 RES1   0.0000
   142 H88      -4.0747    9.9027    1.1490   H         1 RES1   0.0000
   143 H89      -3.6846   10.1173    2.8484   H         1 RES1   0.0000
   144 H90      -3.8208    7.6307    3.1698   H         1 RES1   0.0000
   145 H91      -4.4386    7.4908    1.5193   H         1 RES1   0.0000
   146 H92      -6.3080    9.0204    2.0844   H         1 RES1   0.0000
   147 H93      -5.7433    9.0821    3.7505   H         1 RES1   0.0000
   148 H94      -6.6196    6.5443    2.2819   H         1 RES1   0.0000
   149 H95      -7.5654    7.4203    3.4891   H         1 RES1   0.0000
   150 H96      -6.0683    6.6147    3.9621   H         1 RES1   0.0000
   151 C49       0.4067   -0.6027  -10.2391   C.3       1 RES1   0.0000
   152 C50       0.9290   -1.7557   -9.3863   C.3       1 RES1   0.0000
   153 C51      -0.0574   -2.9296   -9.3298   C.3       1 RES1   0.0000
   154 C52      -1.0576   -2.8694   -8.1654   C.3       1 RES1   0.0000
   155 C53      -0.5847   -3.5475   -6.8682   C.3       1 RES1   0.0000
   156 C54       0.0710   -2.6170   -5.8395   C.3       1 RES1   0.0000
   157 C55      -0.8780   -1.6738   -5.0881   C.3       1 RES1   0.0000
   158 C56      -1.8299   -2.4243   -4.1556   C.3       1 RES1   0.0000
   159 N3       -2.6811   -1.5628   -3.3278   N.am      1 RES1   0.0000
   160 C57      -4.0985   -1.4583   -3.6926   C.3       1 RES1   0.0000
   161 C58      -4.3150   -1.0249   -5.1511   C.3       1 RES1   0.0000
   162 C59      -5.6307   -0.2632   -5.4139   C.3       1 RES1   0.0000
   163 C60      -6.9773   -1.0383   -5.4179   C.3       1 RES1   0.0000
   164 C61      -6.7805   -2.5544   -5.5353   C.3       1 RES1   0.0000
   165 C62      -8.0766   -3.3400   -5.7417   C.3       1 RES1   0.0000
   166 C63      -7.8280   -4.7433   -6.3006   C.3       1 RES1   0.0000
   167 C64      -6.9558   -5.6055   -5.3925   C.3       1 RES1   0.0000
   168 C65      -7.8694   -0.6326   -4.2303   C.3       1 RES1   0.0000
   169 C66      -8.5189    0.7461   -4.4317   C.3       1 RES1   0.0000
   170 C67      -9.7897    1.0065   -3.6024   C.3       1 RES1   0.0000
   171 C68      -9.6239    1.7319   -2.2628   C.3       1 RES1   0.0000
   172 C69      -9.2338    3.2086   -2.3766   C.3       1 RES1   0.0000
   173 C70      -9.4311    3.9546   -1.0573   C.3       1 RES1   0.0000
   174 C71      -2.1567   -1.0514   -2.2193   C.2       1 RES1   0.0000
   175 O4       -0.9395   -1.1009   -1.9500   O.2       1 RES1   0.0000
   176 C72      -3.0905   -0.3926   -1.1963   C.3       1 RES1   0.0000
   177 O5       -2.3934   -0.1698    0.0277   O.3       1 RES1   0.0000
   178 C73      -3.0340   -0.6224    1.2172   C.3       1 RES1   0.0000
   179 C74      -2.1530   -1.6841    1.8925   C.2       1 RES1   0.0000
   180 O6       -0.9377   -1.6454    1.6158   O.2       1 RES1   0.0000
   181 N4       -2.6731   -2.5365    2.7623   N.am      1 RES1   0.0000
   182 C75      -1.7867   -3.5149    3.4075   C.3       1 RES1   0.0000
   183 C76      -1.1240   -4.5189    2.4614   C.3       1 RES1   0.0000
   184 C77      -2.1025   -5.4494    1.7540   C.3       1 RES1   0.0000
   185 C78      -1.4679   -6.7310    1.2153   C.3       1 RES1   0.0000
   186 C79      -0.3584   -6.5202    0.1930   C.3       1 RES1   0.0000
   187 C80       0.0013   -7.8359   -0.4969   C.3       1 RES1   0.0000
   188 C81       1.2753   -7.7524   -1.3411   C.3       1 RES1   0.0000
   189 C82       2.5415   -7.8547   -0.4940   C.3       1 RES1   0.0000
   190 C83      -4.0520   -2.4745    3.2313   C.3       1 RES1   0.0000
   191 C84      -4.9626   -3.5330    2.5946   C.3       1 RES1   0.0000
   192 C85      -5.0626   -3.3737    1.0791   C.3       1 RES1   0.0000
   193 C86      -5.3926   -4.6246    0.2516   C.3       1 RES1   0.0000
   194 C87      -5.2227   -4.2066   -1.2210   C.3       1 RES1   0.0000
   195 C88      -4.9395   -5.3361   -2.2051   C.3       1 RES1   0.0000
   196 C89      -3.5441   -5.9359   -2.0461   C.3       1 RES1   0.0000
   197 C90      -3.2421   -6.9328   -3.1596   C.3       1 RES1   0.0000
   198 C91      -6.8117   -5.1607    0.4552   C.3       1 RES1   0.0000
   199 C92      -7.1819   -5.7919    1.8009   C.3       1 RES1   0.0000
   200 C93      -6.6631   -7.2058    2.0739   C.3       1 RES1   0.0000
   201 C94      -5.1993   -7.3070    2.4964   C.3       1 RES1   0.0000
   202 C95      -4.8697   -8.6799    3.0835   C.3       1 RES1   0.0000
   203 C96      -3.3997   -8.8120    3.4760   C.3       1 RES1   0.0000
   204 H97       1.1097    0.2283  -10.2368   H         1 RES1   0.0000
   205 H98      -0.5501   -0.2455   -9.8691   H         1 RES1   0.0000
   206 H99       0.2694   -0.9241  -11.2684   H         1 RES1   0.0000
   207 H100      1.1367   -1.3970   -8.3760   H         1 RES1   0.0000
   208 H101      1.8760   -2.0878   -9.8134   H         1 RES1   0.0000
   209 H102      0.4910   -3.8708   -9.2826   H         1 RES1   0.0000
   210 H103     -0.6094   -2.9379  -10.2707   H         1 RES1   0.0000
   211 H104     -1.9721   -3.3642   -8.4919   H         1 RES1   0.0000
   212 H105     -1.3071   -1.8292   -7.9614   H         1 RES1   0.0000
   213 H106      0.1396   -4.3210   -7.1285   H         1 RES1   0.0000
   214 H107     -1.4275   -4.0570   -6.3996   H         1 RES1   0.0000
   215 H108      0.8178   -2.0149   -6.3571   H         1 RES1   0.0000
   216 H109      0.6020   -3.2238   -5.1013   H         1 RES1   0.0000
   217 H110     -1.4490   -1.0831   -5.7997   H         1 RES1   0.0000
   218 H111     -0.2807   -0.9879   -4.4814   H         1 RES1   0.0000
   219 H112     -1.2318   -3.0405   -3.4781   H         1 RES1   0.0000
   220 H113     -2.4915   -3.0689   -4.7285   H         1 RES1   0.0000
   221 H114     -4.5815   -0.7142   -3.0646   H         1 RES1   0.0000
   222 H115     -4.5714   -2.4266   -3.5065   H         1 RES1   0.0000
   223 H116     -4.2403   -1.8758   -5.8244   H         1 RES1   0.0000
   224 H117     -3.5020   -0.3415   -5.4007   H         1 RES1   0.0000
   225 H118     -5.5109    0.1990   -6.3965   H         1 RES1   0.0000
   226 H119     -5.7048    0.5453   -4.6848   H         1 RES1   0.0000
   227 H120     -7.5175   -0.7363   -6.3202   H         1 RES1   0.0000
   228 H121     -6.2831   -2.9374   -4.6450   H         1 RES1   0.0000
   229 H122     -6.1436   -2.7472   -6.4016   H         1 RES1   0.0000
   230 H123     -8.7205   -2.8063   -6.4397   H         1 RES1   0.0000
   231 H124     -8.6158   -3.4328   -4.7982   H         1 RES1   0.0000
   232 H125     -7.3558   -4.6680   -7.2830   H         1 RES1   0.0000
   233 H126     -8.7908   -5.2404   -6.4374   H         1 RES1   0.0000
   234 H127     -5.9319   -5.2349   -5.3644   H         1 RES1   0.0000
   235 H128     -6.9296   -6.6292   -5.7571   H         1 RES1   0.0000
   236 H129     -7.3530   -5.6157   -4.3790   H         1 RES1   0.0000
   237 H130     -7.2851   -0.6653   -3.3119   H         1 RES1   0.0000
   238 H131     -8.6697   -1.3635   -4.1342   H         1 RES1   0.0000
   239 H132     -8.8051    0.8071   -5.4811   H         1 RES1   0.0000
   240 H133     -7.7962    1.5444   -4.2590   H         1 RES1   0.0000
   241 H134    -10.2779    0.0505   -3.4105   H         1 RES1   0.0000
   242 H135    -10.4788    1.6001   -4.2050   H         1 RES1   0.0000
   243 H136     -8.9014    1.2077   -1.6381   H         1 RES1   0.0000
   244 H137    -10.5832    1.6887   -1.7439   H         1 RES1   0.0000
   245 H138     -9.8526    3.6884   -3.1357   H         1 RES1   0.0000
   246 H139     -8.1925    3.3078   -2.6926   H         1 RES1   0.0000
   247 H140    -10.4856    3.9922   -0.7976   H         1 RES1   0.0000
   248 H141     -9.0599    4.9756   -1.1289   H         1 RES1   0.0000
   249 H142     -8.9084    3.4618   -0.2404   H         1 RES1   0.0000
   250 H143     -3.9688   -1.0209   -1.0453   H         1 RES1   0.0000
   251 H144     -3.4076    0.5898   -1.5641   H         1 RES1   0.0000
   252 H145     -4.0380   -0.9851    1.0130   H         1 RES1   0.0000
   253 H146     -3.0766    0.2304    1.9074   H         1 RES1   0.0000
   254 H147     -2.3736   -4.0532    4.1506   H         1 RES1   0.0000
   255 H148     -0.9953   -2.9587    3.9153   H         1 RES1   0.0000
   256 H149     -0.4344   -5.1116    3.0636   H         1 RES1   0.0000
   257 H150     -0.5404   -3.9793    1.7206   H         1 RES1   0.0000
   258 H151     -2.5734   -4.9075    0.9334   H         1 RES1   0.0000
   259 H152     -2.8767   -5.7546    2.4557   H         1 RES1   0.0000
   260 H153     -2.2535   -7.3315    0.7535   H         1 RES1   0.0000
   261 H154     -1.0641   -7.3116    2.0461   H         1 RES1   0.0000
   262 H155      0.5121   -6.1286    0.7115   H         1 RES1   0.0000
   263 H156     -0.6667   -5.7852   -0.5557   H         1 RES1   0.0000
   264 H157     -0.8341   -8.1334   -1.1309   H         1 RES1   0.0000
   265 H158      0.1324   -8.6135    0.2567   H         1 RES1   0.0000
   266 H159      1.2733   -6.8185   -1.9135   H         1 RES1   0.0000
   267 H160      1.2846   -8.5708   -2.0620   H         1 RES1   0.0000
   268 H161      2.5166   -7.1566    0.3398   H         1 RES1   0.0000
   269 H162      3.4259   -7.6524   -1.0961   H         1 RES1   0.0000
   270 H163      2.6337   -8.8573   -0.0842   H         1 RES1   0.0000
   271 H164     -4.4593   -1.4795    3.0520   H         1 RES1   0.0000
   272 H165     -4.0389   -2.6303    4.3136   H         1 RES1   0.0000
   273 H166     -5.9448   -3.4333    3.0549   H         1 RES1   0.0000
   274 H167     -4.5719   -4.5198    2.8306   H         1 RES1   0.0000
   275 H168     -4.0791   -3.0476    0.7285   H         1 RES1   0.0000
   276 H169     -5.7981   -2.6023    0.8356   H         1 RES1   0.0000
   277 H170     -4.6650   -5.3971    0.4935   H         1 RES1   0.0000
   278 H171     -4.3968   -3.4895   -1.3022   H         1 RES1   0.0000
   279 H172     -6.1348   -3.6897   -1.5235   H         1 RES1   0.0000
   280 H173     -5.0276   -4.9392   -3.2196   H         1 RES1   0.0000
   281 H174     -5.6820   -6.1258   -2.1010   H         1 RES1   0.0000
   282 H175     -3.4667   -6.4478   -1.0864   H         1 RES1   0.0000
   283 H176     -2.7940   -5.1357   -2.0542   H         1 RES1   0.0000
   284 H177     -3.9708   -7.7395   -3.1469   H         1 RES1   0.0000
   285 H178     -2.2501   -7.3623   -3.0354   H         1 RES1   0.0000
   286 H179     -3.2907   -6.4500   -4.1341   H         1 RES1   0.0000
   287 H180     -7.0069   -5.9063   -0.3165   H         1 RES1   0.0000
   288 H181     -7.4964   -4.3282    0.2741   H         1 RES1   0.0000
   289 H182     -8.2709   -5.8482    1.8135   H         1 RES1   0.0000
   290 H183     -6.8964   -5.1459    2.6258   H         1 RES1   0.0000
   291 H184     -6.8295   -7.8346    1.1995   H         1 RES1   0.0000
   292 H185     -7.2630   -7.6187    2.8866   H         1 RES1   0.0000
   293 H186     -4.9900   -6.5514    3.2593   H         1 RES1   0.0000
   294 H187     -4.5439   -7.1283    1.6432   H         1 RES1   0.0000
   295 H188     -5.1150   -9.4544    2.3548   H         1 RES1   0.0000
   296 H189     -5.4913   -8.8487    3.9641   H         1 RES1   0.0000
   297 H190     -2.7633   -8.7684    2.5951   H         1 RES1   0.0000
   298 H191     -3.2269   -9.7665    3.9676   H         1 RES1   0.0000
   299 H192     -3.1037   -8.0154    4.1598   H         1 RES1   0.0000
   300 C97       2.8190    6.8893    3.5164   C.3       1 RES1   0.0000
   301 C98       2.4898    6.5028    4.9552   C.3       1 RES1   0.0000
   302 C99       3.7251    6.1495    5.7858   C.3       1 RES1   0.0000
   303 C100      4.5041    4.9097    5.3287   C.3       1 RES1   0.0000
   304 C101      4.0112    3.5653    5.8783   C.3       1 RES1   0.0000
   305 C102      2.7458    2.9645    5.2564   C.3       1 RES1   0.0000
   306 C103      2.7709    2.6700    3.7511   C.3       1 RES1   0.0000
   307 C104      3.7489    1.5628    3.3533   C.3       1 RES1   0.0000
   308 N5        3.9847    1.4637    1.9077   N.am      1 RES1   0.0000
   309 C105      5.2956    1.9134    1.4447   C.3       1 RES1   0.0000
   310 C106      5.6736    3.3225    1.9112   C.3       1 RES1   0.0000
   311 C107      6.5629    4.0764    0.9109   C.3       1 RES1   0.0000
   312 C108      7.9237    3.4525    0.5355   C.3       1 RES1   0.0000
   313 C109      8.5789    2.7757    1.7423   C.3       1 RES1   0.0000
   314 C110     10.0239    2.3410    1.5039   C.3       1 RES1   0.0000
   315 C111     10.7464    1.9788    2.8034   C.3       1 RES1   0.0000
   316 C112     10.1090    0.8015    3.5362   C.3       1 RES1   0.0000
   317 C113      7.8462    2.5444   -0.7023   C.3       1 RES1   0.0000
   318 C114      7.6141    3.3534   -1.9789   C.3       1 RES1   0.0000
   319 C115      7.6105    2.5205   -3.2610   C.3       1 RES1   0.0000
   320 C116      6.3187    1.7419   -3.5205   C.3       1 RES1   0.0000
   321 C117      5.1165    2.6373   -3.8273   C.3       1 RES1   0.0000
   322 C118      3.9098    1.8361   -4.3107   C.3       1 RES1   0.0000
   323 C119      3.1172    0.8215    1.1329   C.2       1 RES1   0.0000
   324 O7        2.0322    0.3644    1.5383   O.2       1 RES1   0.0000
   325 C120      3.4827    0.6160   -0.3500   C.3       1 RES1   0.0000
   326 O8        2.3382    0.1955   -1.0916   O.3       1 RES1   0.0000
   327 C121      2.5272   -0.9631   -1.9001   C.3       1 RES1   0.0000
   328 C122      2.1489   -2.1798   -1.0460   C.2       1 RES1   0.0000
   329 O9        1.1487   -2.0188   -0.3216   O.2       1 RES1   0.0000
   330 N6        2.8701   -3.2852   -1.0713   N.am      1 RES1   0.0000
   331 C123      2.5383   -4.4127   -0.1981   C.3       1 RES1   0.0000
   332 C124      2.1786   -4.0735    1.2451   C.3       1 RES1   0.0000
   333 C125      3.2786   -3.4116    2.0602   C.3       1 RES1   0.0000
   334 C126      2.8375   -3.2523    3.5163   C.3       1 RES1   0.0000
   335 C127      1.8946   -2.0720    3.7353   C.3       1 RES1   0.0000
   336 C128      1.5031   -1.9644    5.2085   C.3       1 RES1   0.0000
   337 C129      0.8572   -0.6346    5.5959   C.3       1 RES1   0.0000
   338 C130     -0.5031   -0.3882    4.9500   C.3       1 RES1   0.0000
   339 C131      3.8610   -3.6110   -2.0875   C.3       1 RES1   0.0000
   340 C132      5.2770   -3.7698   -1.5173   C.3       1 RES1   0.0000
   341 C133      5.7701   -2.5077   -0.8069   C.3       1 RES1   0.0000
   342 C134      6.6294   -2.7309    0.4460   C.3       1 RES1   0.0000
   343 C135      6.8323   -1.3580    1.1031   C.3       1 RES1   0.0000
   344 C136      7.2508   -1.3816    2.5714   C.3       1 RES1   0.0000
   345 C137      6.1637   -1.9226    3.4971   C.3       1 RES1   0.0000
   346 C138      6.5304   -1.7620    4.9688   C.3       1 RES1   0.0000
   347 C139      7.9908   -3.3674    0.1542   C.3       1 RES1   0.0000
   348 C140      8.0421   -4.8585   -0.1936   C.3       1 RES1   0.0000
   349 C141      7.8186   -5.8432    0.9580   C.3       1 RES1   0.0000
   350 C142      6.3828   -5.9675    1.4612   C.3       1 RES1   0.0000
   351 C143      6.2173   -7.1028    2.4690   C.3       1 RES1   0.0000
   352 C144      4.7908   -7.1717    3.0094   C.3       1 RES1   0.0000
   353 H193      1.9224    7.2120    2.9913   H         1 RES1   0.0000
   354 H194      3.2505    6.0535    2.9686   H         1 RES1   0.0000
   355 H195      3.5318    7.7089    3.4984   H         1 RES1   0.0000
   356 H196      1.7857    5.6695    4.9573   H         1 RES1   0.0000
   357 H197      1.9910    7.3508    5.4277   H         1 RES1   0.0000
   358 H198      3.4228    6.0186    6.8253   H         1 RES1   0.0000
   359 H199      4.3932    7.0120    5.7571   H         1 RES1   0.0000
   360 H200      5.5301    5.0345    5.6769   H         1 RES1   0.0000
   361 H201      4.5456    4.8820    4.2415   H         1 RES1   0.0000
   362 H202      3.8109    3.6911    6.9439   H         1 RES1   0.0000
   363 H203      4.8260    2.8430    5.7984   H         1 RES1   0.0000
   364 H204      1.9136    3.6423    5.4450   H         1 RES1   0.0000
   365 H205      2.5269    2.0366    5.7870   H         1 RES1   0.0000
   366 H206      3.0198    3.5850    3.2152   H         1 RES1   0.0000
   367 H207      1.7667    2.3540    3.4574   H         1 RES1   0.0000
   368 H208      3.3494    0.6095    3.7020   H         1 RES1   0.0000
   369 H209      4.7165    1.7302    3.8185   H         1 RES1   0.0000
   370 H210      5.3138    1.9142    0.3605   H         1 RES1   0.0000
   371 H211      6.0461    1.1995    1.7930   H         1 RES1   0.0000
   372 H212      6.1611    3.2832    2.8825   H         1 RES1   0.0000
   373 H213      4.7610    3.9077    2.0237   H         1 RES1   0.0000
   374 H214      6.7448    5.0606    1.3469   H         1 RES1   0.0000
   375 H215      5.9903    4.2312   -0.0034   H         1 RES1   0.0000
   376 H216      8.5764    4.2834    0.2502   H         1 RES1   0.0000
   377 H217      8.0025    1.9006    2.0370   H         1 RES1   0.0000
   378 H218      8.5753    3.4843    2.5729   H         1 RES1   0.0000
   379 H219     10.5722    3.1488    1.0200   H         1 RES1   0.0000
   380 H220     10.0510    1.4760    0.8397   H         1 RES1   0.0000
   381 H221     10.7640    2.8473    3.4655   H         1 RES1   0.0000
   382 H222     11.7818    1.7235    2.5673   H         1 RES1   0.0000
   383 H223      9.1262    1.0632    3.9264   H         1 RES1   0.0000
   384 H224     10.7306    0.5023    4.3758   H         1 RES1   0.0000
   385 H225     10.0070   -0.0522    2.8683   H         1 RES1   0.0000
   386 H226      7.0786    1.7798   -0.5831   H         1 RES1   0.0000
   387 H227      8.7980    2.0280   -0.8135   H         1 RES1   0.0000
   388 H228      8.4167    4.0862   -2.0522   H         1 RES1   0.0000
   389 H229      6.6802    3.9114   -1.9175   H         1 RES1   0.0000
   390 H230      8.4432    1.8178   -3.2237   H         1 RES1   0.0000
   391 H231      7.7829    3.1827   -4.1112   H         1 RES1   0.0000
   392 H232      6.0890    1.0978   -2.6661   H         1 RES1   0.0000
   393 H233      6.4850    1.0952   -4.3838   H         1 RES1   0.0000
   394 H234      5.3960    3.3505   -4.6035   H         1 RES1   0.0000
   395 H235      4.8337    3.2130   -2.9418   H         1 RES1   0.0000
   396 H236      4.1573    1.2910   -5.2182   H         1 RES1   0.0000
   397 H237      3.0710    2.4949   -4.5301   H         1 RES1   0.0000
   398 H238      3.5927    1.1127   -3.5595   H         1 RES1   0.0000
   399 H239      4.2803   -0.1292   -0.4072   H         1 RES1   0.0000
   400 H240      3.8453    1.5438   -0.8030   H         1 RES1   0.0000
   401 H241      3.5346   -0.9830   -2.3093   H         1 RES1   0.0000
   402 H242      1.7960   -0.8733   -2.7125   H         1 RES1   0.0000
   403 H243      3.4070   -5.0720   -0.1940   H         1 RES1   0.0000
   404 H244      1.6980   -4.9421   -0.6570   H         1 RES1   0.0000
   405 H245      1.9255   -5.0136    1.7391   H         1 RES1   0.0000
   406 H246      1.3005   -3.4358    1.2709   H         1 RES1   0.0000
   407 H247      3.5315   -2.4334    1.6413   H         1 RES1   0.0000
   408 H248      4.1652   -4.0422    2.0219   H         1 RES1   0.0000
   409 H249      3.7141   -3.1092    4.1482   H         1 RES1   0.0000
   410 H250      2.3520   -4.1727    3.8463   H         1 RES1   0.0000
   411 H251      1.0114   -2.1627    3.1002   H         1 RES1   0.0000
   412 H252      2.4024   -1.1574    3.4261   H         1 RES1   0.0000
   413 H253      2.4053   -2.0801    5.8121   H         1 RES1   0.0000
   414 H254      0.8351   -2.7870    5.4700   H         1 RES1   0.0000
   415 H255      1.5314    0.1802    5.3241   H         1 RES1   0.0000
   416 H256      0.7354   -0.6145    6.6809   H         1 RES1   0.0000
   417 H257     -0.4193   -0.3404    3.8607   H         1 RES1   0.0000
   418 H258     -0.9176    0.5521    5.3099   H         1 RES1   0.0000
   419 H259     -1.1988   -1.1776    5.2280   H         1 RES1   0.0000
   420 H260      3.8590   -2.8573   -2.8711   H         1 RES1   0.0000
   421 H261      3.5567   -4.5592   -2.5421   H         1 RES1   0.0000
   422 H262      5.9382   -4.0274   -2.3450   H         1 RES1   0.0000
   423 H263      5.2824   -4.5985   -0.8124   H         1 RES1   0.0000
   424 H264      4.8821   -1.9660   -0.4693   H         1 RES1   0.0000
   425 H265      6.3168   -1.8672   -1.5013   H         1 RES1   0.0000
   426 H266      6.0549   -3.3507    1.1286   H         1 RES1   0.0000
   427 H267      5.8900   -0.8045    1.0400   H         1 RES1   0.0000
   428 H268      7.5777   -0.8100    0.5258   H         1 RES1   0.0000
   429 H269      7.4885   -0.3608    2.8795   H         1 RES1   0.0000
   430 H270      8.1553   -1.9730    2.7030   H         1 RES1   0.0000
   431 H271      6.0088   -2.9834    3.2989   H         1 RES1   0.0000
   432 H272      5.2201   -1.4042    3.2953   H         1 RES1   0.0000
   433 H273      7.4601   -2.2825    5.1842   H         1 RES1   0.0000
   434 H274      5.7511   -2.1809    5.6035   H         1 RES1   0.0000
   435 H275      6.6615   -0.7132    5.2289   H         1 RES1   0.0000
   436 H276      8.6370   -3.2187    1.0198   H         1 RES1   0.0000
   437 H277      8.4318   -2.8070   -0.6739   H         1 RES1   0.0000
   438 H278      9.0459   -5.0448   -0.5775   H         1 RES1   0.0000
   439 H279      7.3578   -5.0921   -1.0045   H         1 RES1   0.0000
   440 H280      8.4688   -5.5820    1.7940   H         1 RES1   0.0000
   441 H281      8.1255   -6.8293    0.6054   H         1 RES1   0.0000
   442 H282      5.7059   -6.1411    0.6184   H         1 RES1   0.0000
   443 H283      6.0779   -5.0483    1.9611   H         1 RES1   0.0000
   444 H284      6.9107   -6.9477    3.2976   H         1 RES1   0.0000
   445 H285      6.4723   -8.0532    1.9994   H         1 RES1   0.0000
   446 H286      4.5130   -6.2306    3.4857   H         1 RES1   0.0000
   447 H287      4.7057   -7.9670    3.7460   H         1 RES1   0.0000
   448 H288      4.0855   -7.3756    2.2039   H         1 RES1   0.0000
@<TRIPOS>BOND
     1     1    26    1
     2     1    28    1
     3     1    31    1
     4     1   175    1
     5     1   177    1
     6     1   180    1
     7     1   324    1
     8     1   326    1
     9     1   329    1
    10     2     3    1
    11     2    55    1
    12     2    56    1
    13     2    57    1
    14     3     4    1
    15     3    58    1
    16     3    59    1
    17     4     5    1
    18     4    60    1
    19     4    61    1
    20     5     6    1
    21     5    62    1
    22     5    63    1
    23     6     7    1
    24     6    64    1
    25     6    65    1
    26     7     8    1
    27     7    66    1
    28     7    67    1
    29     8     9    1
    30     8    68    1
    31     8    69    1
    32     9    10    1
    33     9    70    1
    34     9    71    1
    35    10    11    1
    36    10    25    1
    37    11    12    1
    38    11    72    1
    39    11    73    1
    40    12    13    1
    41    12    74    1
    42    12    75    1
    43    13    14    1
    44    13    76    1
    45    13    77    1
    46    14    15    1
    47    14    19    1
    48    14    78    1
    49    15    16    1
    50    15    79    1
    51    15    80    1
    52    16    17    1
    53    16    81    1
    54    16    82    1
    55    17    18    1
    56    17    83    1
    57    17    84    1
    58    18    85    1
    59    18    86    1
    60    18    87    1
    61    19    20    1
    62    19    88    1
    63    19    89    1
    64    20    21    1
    65    20    90    1
    66    20    91    1
    67    21    22    1
    68    21    92    1
    69    21    93    1
    70    22    23    1
    71    22    94    1
    72    22    95    1
    73    23    24    1
    74    23    96    1
    75    23    97    1
    76    24    98    1
    77    24    99    1
    78    24   100    1
    79    25    26    2
    80    25    27    1
    81    27    28    1
    82    27   101    1
    83    27   102    1
    84    28    29    1
    85    29    30    1
    86    29   103    1
    87    29   104    1
    88    30    31    2
    89    30    32    1
    90    32    33    1
    91    32    41    1
    92    33    34    1
    93    33   105    1
    94    33   106    1
    95    34    35    1
    96    34   107    1
    97    34   108    1
    98    35    36    1
    99    35   109    1
   100    35   110    1
   101    36    37    1
   102    36   111    1
   103    36   112    1
   104    37    38    1
   105    37   113    1
   106    37   114    1
   107    38    39    1
   108    38   115    1
   109    38   116    1
   110    39    40    1
   111    39   117    1
   112    39   118    1
   113    40   119    1
   114    40   120    1
   115    40   121    1
   116    41    42    1
   117    41   122    1
   118    41   123    1
   119    42    43    1
   120    42   124    1
   121    42   125    1
   122    43    44    1
   123    43   126    1
   124    43   127    1
   125    44    45    1
   126    44    49    1
   127    44   128    1
   128    45    46    1
   129    45   129    1
   130    45   130    1
   131    46    47    1
   132    46   131    1
   133    46   132    1
   134    47    48    1
   135    47   133    1
   136    47   134    1
   137    48   135    1
   138    48   136    1
   139    48   137    1
   140    49    50    1
   141    49   138    1
   142    49   139    1
   143    50    51    1
   144    50   140    1
   145    50   141    1
   146    51    52    1
   147    51   142    1
   148    51   143    1
   149    52    53    1
   150    52   144    1
   151    52   145    1
   152    53    54    1
   153    53   146    1
   154    53   147    1
   155    54   148    1
   156    54   149    1
   157    54   150    1
   158   151   152    1
   159   151   204    1
   160   151   205    1
   161   151   206    1
   162   152   153    1
   163   152   207    1
   164   152   208    1
   165   153   154    1
   166   153   209    1
   167   153   210    1
   168   154   155    1
   169   154   211    1
   170   154   212    1
   171   155   156    1
   172   155   213    1
   173   155   214    1
   174   156   157    1
   175   156   215    1
   176   156   216    1
   177   157   158    1
   178   157   217    1
   179   157   218    1
   180   158   159    1
   181   158   219    1
   182   158   220    1
   183   159   160    1
   184   159   174    1
   185   160   161    1
   186   160   221    1
   187   160   222    1
   188   161   162    1
   189   161   223    1
   190   161   224    1
   191   162   163    1
   192   162   225    1
   193   162   226    1
   194   163   164    1
   195   163   168    1
   196   163   227    1
   197   164   165    1
   198   164   228    1
   199   164   229    1
   200   165   166    1
   201   165   230    1
   202   165   231    1
   203   166   167    1
   204   166   232    1
   205   166   233    1
   206   167   234    1
   207   167   235    1
   208   167   236    1
   209   168   169    1
   210   168   237    1
   211   168   238    1
   212   169   170    1
   213   169   239    1
   214   169   240    1
   215   170   171    1
   216   170   241    1
   217   170   242    1
   218   171   172    1
   219   171   243    1
   220   171   244    1
   221   172   173    1
   222   172   245    1
   223   172   246    1
   224   173   247    1
   225   173   248    1
   226   173   249    1
   227   174   175    2
   228   174   176    1
   229   176   177    1
   230   176   250    1
   231   176   251    1
   232   177   178    1
   233   178   179    1
   234   178   252    1
   235   178   253    1
   236   179   180    2
   237   179   181    1
   238   181   182    1
   239   181   190    1
   240   182   183    1
   241   182   254    1
   242   182   255    1
   243   183   184    1
   244   183   256    1
   245   183   257    1
   246   184   185    1
   247   184   258    1
   248   184   259    1
   249   185   186    1
   250   185   260    1
   251   185   261    1
   252   186   187    1
   253   186   262    1
   254   186   263    1
   255   187   188    1
   256   187   264    1
   257   187   265    1
   258   188   189    1
   259   188   266    1
   260   188   267    1
   261   189   268    1
   262   189   269    1
   263   189   270    1
   264   190   191    1
   265   190   271    1
   266   190   272    1
   267   191   192    1
   268   191   273    1
   269   191   274    1
   270   192   193    1
   271   192   275    1
   272   192   276    1
   273   193   194    1
   274   193   198    1
   275   193   277    1
   276   194   195    1
   277   194   278    1
   278   194   279    1
   279   195   196    1
   280   195   280    1
   281   195   281    1
   282   196   197    1
   283   196   282    1
   284   196   283    1
   285   197   284    1
   286   197   285    1
   287   197   286    1
   288   198   199    1
   289   198   287    1
   290   198   288    1
   291   199   200    1
   292   199   289    1
   293   199   290    1
   294   200   201    1
   295   200   291    1
   296   200   292    1
   297   201   202    1
   298   201   293    1
   299   201   294    1
   300   202   203    1
   301   202   295    1
   302   202   296    1
   303   203   297    1
   304   203   298    1
   305   203   299    1
   306   300   301    1
   307   300   353    1
   308   300   354    1
   309   300   355    1
   310   301   302    1
   311   301   356    1
   312   301   357    1
   313   302   303    1
   314   302   358    1
   315   302   359    1
   316   303   304    1
   317   303   360    1
   318   303   361    1
   319   304   305    1
   320   304   362    1
   321   304   363    1
   322   305   306    1
   323   305   364    1
   324   305   365    1
   325   306   307    1
   326   306   366    1
   327   306   367    1
   328   307   308    1
   329   307   368    1
   330   307   369    1
   331   308   309    1
   332   308   323    1
   333   309   310    1
   334   309   370    1
   335   309   371    1
   336   310   311    1
   337   310   372    1
   338   310   373    1
   339   311   312    1
   340   311   374    1
   341   311   375    1
   342   312   313    1
   343   312   317    1
   344   312   376    1
   345   313   314    1
   346   313   377    1
   347   313   378    1
   348   314   315    1
   349   314   379    1
   350   314   380    1
   351   315   316    1
   352   315   381    1
   353   315   382    1
   354   316   383    1
   355   316   384    1
   356   316   385    1
   357   317   318    1
   358   317   386    1
   359   317   387    1
   360   318   319    1
   361   318   388    1
   362   318   389    1
   363   319   320    1
   364   319   390    1
   365   319   391    1
   366   320   321    1
   367   320   392    1
   368   320   393    1
   369   321   322    1
   370   321   394    1
   371   321   395    1
   372   322   396    1
   373   322   397    1
   374   322   398    1
   375   323   324    2
   376   323   325    1
   377   325   326    1
   378   325   399    1
   379   325   400    1
   380   326   327    1
   381   327   328    1
   382   327   401    1
   383   327   402    1
   384   328   329    2
   385   328   330    1
   386   330   331    1
   387   330   339    1
   388   331   332    1
   389   331   403    1
   390   331   404    1
   391   332   333    1
   392   332   405    1
   393   332   406    1
   394   333   334    1
   395   333   407    1
   396   333   408    1
   397   334   335    1
   398   334   409    1
   399   334   410    1
   400   335   336    1
   401   335   411    1
   402   335   412    1
   403   336   337    1
   404   336   413    1
   405   336   414    1
   406   337   338    1
   407   337   415    1
   408   337   416    1
   409   338   417    1
   410   338   418    1
   411   338   419    1
   412   339   340    1
   413   339   420    1
   414   339   421    1
   415   340   341    1
   416   340   422    1
   417   340   423    1
   418   341   342    1
   419   341   424    1
   420   341   425    1
   421   342   343    1
   422   342   347    1
   423   342   426    1
   424   343   344    1
   425   343   427    1
   426   343   428    1
   427   344   345    1
   428   344   429    1
   429   344   430    1
   430   345   346    1
   431   345   431    1
   432   345   432    1
   433   346   433    1
   434   346   434    1
   435   346   435    1
   436   347   348    1
   437   347   436    1
   438   347   437    1
   439   348   349    1
   440   348   438    1
   441   348   439    1
   442   349   350    1
   443   349   440    1
   444   349   441    1
   445   350   351    1
   446   350   442    1
   447   350   443    1
   448   351   352    1
   449   351   444    1
   450   351   445    1
   451   352   446    1
   452   352   447    1
   453   352   448    1
@<TRIPOS>SUBSTRUCTURE
     1 RES1      448 GROUP             0 ****  ****    0  
