@<TRIPOS>MOLECULE
am_c3_9H2O_c0_0_nunpairedes_0_charge_3 Charge: 3 Unpaired_Electrons: 2 XTB_Unpaired_Electrons: 0 XTB_Charge: 3
   248   251     1     0     0
SMALL
NoCharges
****
Generated from Architector

@<TRIPOS>ATOM
     1 Pr1       0.0103   -0.0176   -0.0200   Pr        1 RES1   0.0000
     2 C1       -5.4119   -2.2180   -3.7535   C.3       1 RES1   0.0000
     3 C2       -5.2351   -0.8730   -3.0535   C.3       1 RES1   0.0000
     4 C3       -4.9238   -1.0597   -1.5727   C.3       1 RES1   0.0000
     5 C4       -4.9113    0.2642   -0.8121   C.3       1 RES1   0.0000
     6 N1       -4.5403    0.0638    0.5830   N.am      1 RES1   0.0000
     7 C5       -5.6057    0.2955    1.5402   C.3       1 RES1   0.0000
     8 C6       -6.7292   -0.7430    1.5339   C.3       1 RES1   0.0000
     9 C7       -6.4012   -2.0600    2.2386   C.3       1 RES1   0.0000
    10 C8       -5.3898   -2.9433    1.5130   C.3       1 RES1   0.0000
    11 C9       -3.2502   -0.1226    0.8478   C.2       1 RES1   0.0000
    12 O1       -2.3934   -0.0322   -0.0531   O.2       1 RES1   0.0000
    13 C10      -2.8130   -0.4026    2.2713   C.3       1 RES1   0.0000
    14 C11      -1.8448   -1.5796    2.3204   C.2       1 RES1   0.0000
    15 O2       -0.9866   -1.6984    1.4300   O.2       1 RES1   0.0000
    16 N2       -1.9413   -2.4242    3.3455   N.am      1 RES1   0.0000
    17 C12      -2.8987   -2.3010    4.4332   C.3       1 RES1   0.0000
    18 C13      -2.5604   -1.1394    5.3749   C.3       1 RES1   0.0000
    19 C14      -3.6717   -0.8298    6.3829   C.3       1 RES1   0.0000
    20 C15      -3.8651   -1.9282    7.4209   C.3       1 RES1   0.0000
    21 C16      -1.0143   -3.5421    3.4478   C.3       1 RES1   0.0000
    22 C17      -1.6819   -4.8494    3.0114   C.3       1 RES1   0.0000
    23 C18      -0.8367   -6.0964    3.2878   C.3       1 RES1   0.0000
    24 C19      -0.7333   -6.4767    4.7617   C.3       1 RES1   0.0000
    25 H1       -5.5045   -2.0801   -4.8267   H         1 RES1   0.0000
    26 H2       -6.2983   -2.7311   -3.3967   H         1 RES1   0.0000
    27 H3       -4.5580   -2.8588   -3.5520   H         1 RES1   0.0000
    28 H4       -6.1437   -0.2780   -3.1557   H         1 RES1   0.0000
    29 H5       -4.4217   -0.3113   -3.5184   H         1 RES1   0.0000
    30 H6       -3.9460   -1.5290   -1.4527   H         1 RES1   0.0000
    31 H7       -5.6677   -1.7261   -1.1408   H         1 RES1   0.0000
    32 H8       -5.8930    0.7349   -0.8463   H         1 RES1   0.0000
    33 H9       -4.1839    0.9437   -1.2664   H         1 RES1   0.0000
    34 H10      -6.0466    1.2643    1.2929   H         1 RES1   0.0000
    35 H11      -5.2144    0.3933    2.5492   H         1 RES1   0.0000
    36 H12      -7.0468   -0.9458    0.5131   H         1 RES1   0.0000
    37 H13      -7.5787   -0.2904    2.0499   H         1 RES1   0.0000
    38 H14      -7.3318   -2.6222    2.3353   H         1 RES1   0.0000
    39 H15      -6.0530   -1.8475    3.2531   H         1 RES1   0.0000
    40 H16      -5.7730   -3.2238    0.5361   H         1 RES1   0.0000
    41 H17      -5.2301   -3.8568    2.0800   H         1 RES1   0.0000
    42 H18      -4.4279   -2.4542    1.3768   H         1 RES1   0.0000
    43 H19      -3.6378   -0.5234    2.9621   H         1 RES1   0.0000
    44 H20      -2.2208    0.4784    2.5407   H         1 RES1   0.0000
    45 H21      -2.8810   -3.2314    4.9976   H         1 RES1   0.0000
    46 H22      -3.9133   -2.2000    4.0447   H         1 RES1   0.0000
    47 H23      -2.3634   -0.2407    4.7898   H         1 RES1   0.0000
    48 H24      -1.6483   -1.3687    5.9236   H         1 RES1   0.0000
    49 H25      -4.6156   -0.6575    5.8595   H         1 RES1   0.0000
    50 H26      -3.4150    0.0984    6.9005   H         1 RES1   0.0000
    51 H27      -4.2129   -2.8490    6.9618   H         1 RES1   0.0000
    52 H28      -4.6049   -1.6162    8.1520   H         1 RES1   0.0000
    53 H29      -2.9335   -2.1287    7.9435   H         1 RES1   0.0000
    54 H30      -0.6922   -3.6263    4.4870   H         1 RES1   0.0000
    55 H31      -0.1468   -3.3124    2.8253   H         1 RES1   0.0000
    56 H32      -1.9005   -4.7903    1.9437   H         1 RES1   0.0000
    57 H33      -2.6322   -4.9588    3.5351   H         1 RES1   0.0000
    58 H34       0.1661   -5.9508    2.8869   H         1 RES1   0.0000
    59 H35      -1.2936   -6.9299    2.7508   H         1 RES1   0.0000
    60 H36      -0.2258   -5.7115    5.3438   H         1 RES1   0.0000
    61 H37      -0.1637   -7.3967    4.8601   H         1 RES1   0.0000
    62 H38      -1.7167   -6.6481    5.1901   H         1 RES1   0.0000
    63 C20      -2.7725    0.1381   -7.0886   C.3       1 RES1   0.0000
    64 C21      -3.0839   -0.9155   -6.0309   C.3       1 RES1   0.0000
    65 C22      -1.8741   -1.1491   -5.1321   C.3       1 RES1   0.0000
    66 C23      -2.0010   -2.3192   -4.1525   C.3       1 RES1   0.0000
    67 N3       -0.6629   -2.7436   -3.7665   N.am      1 RES1   0.0000
    68 C24      -0.2641   -4.0915   -4.1365   C.3       1 RES1   0.0000
    69 C25      -0.1593   -4.4001   -5.6321   C.3       1 RES1   0.0000
    70 C26       1.0749   -3.8712   -6.3696   C.3       1 RES1   0.0000
    71 C27       1.0106   -2.4015   -6.7728   C.3       1 RES1   0.0000
    72 C28      -0.0269   -2.0078   -2.8557   C.2       1 RES1   0.0000
    73 O3       -0.6101   -1.1539   -2.1622   O.2       1 RES1   0.0000
    74 C29       1.4861   -2.1753   -2.7992   C.3       1 RES1   0.0000
    75 C30       2.1044   -0.7914   -2.6911   C.2       1 RES1   0.0000
    76 O4        1.7522   -0.0354   -1.7663   O.2       1 RES1   0.0000
    77 N4        3.0250   -0.4475   -3.5856   N.am      1 RES1   0.0000
    78 C31       3.6543   -1.3765   -4.5119   C.3       1 RES1   0.0000
    79 C32       4.5125   -2.4048   -3.7729   C.3       1 RES1   0.0000
    80 C33       5.0341   -3.5290   -4.6703   C.3       1 RES1   0.0000
    81 C34       6.0209   -3.0482   -5.7242   C.3       1 RES1   0.0000
    82 C35       3.5179    0.9197   -3.6293   C.3       1 RES1   0.0000
    83 C36       2.9821    1.6255   -4.8789   C.3       1 RES1   0.0000
    84 C37       3.6612    2.9663   -5.1662   C.3       1 RES1   0.0000
    85 C38       5.0952    2.8421   -5.6698   C.3       1 RES1   0.0000
    86 H39      -3.6307    0.2857   -7.7376   H         1 RES1   0.0000
    87 H40      -1.9252   -0.1633   -7.7006   H         1 RES1   0.0000
    88 H41      -2.5343    1.0886   -6.6169   H         1 RES1   0.0000
    89 H42      -3.3624   -1.8490   -6.5225   H         1 RES1   0.0000
    90 H43      -3.9285   -0.5771   -5.4351   H         1 RES1   0.0000
    91 H44      -1.6533   -0.2392   -4.5701   H         1 RES1   0.0000
    92 H45      -1.0242   -1.3427   -5.7795   H         1 RES1   0.0000
    93 H46      -2.5215   -3.1578   -4.6111   H         1 RES1   0.0000
    94 H47      -2.5340   -2.0114   -3.2531   H         1 RES1   0.0000
    95 H48      -1.0242   -4.7600   -3.7221   H         1 RES1   0.0000
    96 H49       0.6648   -4.3563   -3.6368   H         1 RES1   0.0000
    97 H50      -1.0532   -4.0625   -6.1530   H         1 RES1   0.0000
    98 H51      -0.1417   -5.4892   -5.7089   H         1 RES1   0.0000
    99 H52       1.1805   -4.4555   -7.2855   H         1 RES1   0.0000
   100 H53       1.9698   -4.0577   -5.7698   H         1 RES1   0.0000
   101 H54       0.1541   -2.2348   -7.4206   H         1 RES1   0.0000
   102 H55       1.9015   -2.1336   -7.3357   H         1 RES1   0.0000
   103 H56       0.9360   -1.7405   -5.9102   H         1 RES1   0.0000
   104 H57       1.8406   -2.7273   -3.6601   H         1 RES1   0.0000
   105 H58       1.7393   -2.7037   -1.8833   H         1 RES1   0.0000
   106 H59       4.2920   -0.8034   -5.1801   H         1 RES1   0.0000
   107 H60       2.9177   -1.8815   -5.1334   H         1 RES1   0.0000
   108 H61       3.9183   -2.8539   -2.9783   H         1 RES1   0.0000
   109 H62       5.3618   -1.8990   -3.3138   H         1 RES1   0.0000
   110 H63       4.1981   -4.0337   -5.1601   H         1 RES1   0.0000
   111 H64       5.5309   -4.2713   -4.0400   H         1 RES1   0.0000
   112 H65       5.5472   -2.3690   -6.4266   H         1 RES1   0.0000
   113 H66       6.4028   -3.8982   -6.2810   H         1 RES1   0.0000
   114 H67       6.8603   -2.5402   -5.2569   H         1 RES1   0.0000
   115 H68       4.6092    0.9015   -3.6436   H         1 RES1   0.0000
   116 H69       3.1794    1.4165   -2.7180   H         1 RES1   0.0000
   117 H70       1.9077    1.7779   -4.7615   H         1 RES1   0.0000
   118 H71       3.1227    0.9802   -5.7465   H         1 RES1   0.0000
   119 H72       3.6510    3.5832   -4.2669   H         1 RES1   0.0000
   120 H73       3.0712    3.4752   -5.9307   H         1 RES1   0.0000
   121 H74       5.7520    2.4049   -4.9219   H         1 RES1   0.0000
   122 H75       5.4790    3.8290   -5.9114   H         1 RES1   0.0000
   123 H76       5.1410    2.2371   -6.5710   H         1 RES1   0.0000
   124 C39       0.7487   -1.6918    7.4749   C.3       1 RES1   0.0000
   125 C40       1.1325   -0.5448    6.5454   C.3       1 RES1   0.0000
   126 C41       1.9868   -1.0347    5.3766   C.3       1 RES1   0.0000
   127 C42       2.4082    0.1338    4.4908   C.3       1 RES1   0.0000
   128 N5        3.2174   -0.2466    3.3352   N.am      1 RES1   0.0000
   129 C43       4.6500   -0.0260    3.4733   C.3       1 RES1   0.0000
   130 C44       5.3669   -0.8822    4.5174   C.3       1 RES1   0.0000
   131 C45       5.5995   -2.3418    4.1268   C.3       1 RES1   0.0000
   132 C46       4.3448   -3.2095    4.0565   C.3       1 RES1   0.0000
   133 C47       2.5748   -0.3938    2.1735   C.2       1 RES1   0.0000
   134 O5        1.3475   -0.2008    2.0846   O.2       1 RES1   0.0000
   135 C48       3.3150   -0.8329    0.9188   C.3       1 RES1   0.0000
   136 C49       2.6015   -2.1037    0.4671   C.2       1 RES1   0.0000
   137 O6        1.3990   -2.0131    0.1646   O.2       1 RES1   0.0000
   138 N6        3.2635   -3.2542    0.4055   N.am      1 RES1   0.0000
   139 C50       4.7039   -3.3747    0.5601   C.3       1 RES1   0.0000
   140 C51       5.4576   -2.8210   -0.6504   C.3       1 RES1   0.0000
   141 C52       6.9684   -2.7299   -0.4298   C.3       1 RES1   0.0000
   142 C53       7.6269   -4.0996   -0.3314   C.3       1 RES1   0.0000
   143 C54       2.5384   -4.4600    0.0201   C.3       1 RES1   0.0000
   144 C55       2.5488   -5.5143    1.1264   C.3       1 RES1   0.0000
   145 C56       1.7402   -6.7618    0.7595   C.3       1 RES1   0.0000
   146 C57       2.3248   -7.5640   -0.3977   C.3       1 RES1   0.0000
   147 H77       0.1271   -1.3292    8.2894   H         1 RES1   0.0000
   148 H78       1.6380   -2.1473    7.9022   H         1 RES1   0.0000
   149 H79       0.2015   -2.4624    6.9350   H         1 RES1   0.0000
   150 H80       1.6937    0.1992    7.1138   H         1 RES1   0.0000
   151 H81       0.2322   -0.0593    6.1593   H         1 RES1   0.0000
   152 H82       1.4213   -1.7480    4.7760   H         1 RES1   0.0000
   153 H83       2.8594   -1.5421    5.7789   H         1 RES1   0.0000
   154 H84       2.9620    0.8628    5.0842   H         1 RES1   0.0000
   155 H85       1.4974    0.6002    4.1086   H         1 RES1   0.0000
   156 H86       4.7856    1.0209    3.7601   H         1 RES1   0.0000
   157 H87       5.1476   -0.1394    2.5142   H         1 RES1   0.0000
   158 H88       4.8417   -0.8374    5.4683   H         1 RES1   0.0000
   159 H89       6.3452   -0.4219    4.6748   H         1 RES1   0.0000
   160 H90       6.2673   -2.7747    4.8733   H         1 RES1   0.0000
   161 H91       6.1314   -2.3757    3.1723   H         1 RES1   0.0000
   162 H92       3.8927   -3.3019    5.0391   H         1 RES1   0.0000
   163 H93       4.6143   -4.2098    3.7285   H         1 RES1   0.0000
   164 H94       3.5982   -2.8124    3.3711   H         1 RES1   0.0000
   165 H95       4.3852   -0.9493    1.0240   H         1 RES1   0.0000
   166 H96       3.0755   -0.0864    0.1492   H         1 RES1   0.0000
   167 H97       4.9441   -4.4291    0.6724   H         1 RES1   0.0000
   168 H98       5.0335   -2.8741    1.4672   H         1 RES1   0.0000
   169 H99       5.0753   -1.8284   -0.8955   H         1 RES1   0.0000
   170 H100      5.2846   -3.4721   -1.5041   H         1 RES1   0.0000
   171 H101      7.1831   -2.1540    0.4734   H         1 RES1   0.0000
   172 H102      7.4083   -2.1907   -1.2722   H         1 RES1   0.0000
   173 H103      7.2795   -4.6426    0.5428   H         1 RES1   0.0000
   174 H104      8.7034   -3.9867   -0.2532   H         1 RES1   0.0000
   175 H105      7.4113   -4.6918   -1.2173   H         1 RES1   0.0000
   176 H106      2.9883   -4.8707   -0.8860   H         1 RES1   0.0000
   177 H107      1.5075   -4.1634   -0.1858   H         1 RES1   0.0000
   178 H108      2.1357   -5.0721    2.0353   H         1 RES1   0.0000
   179 H109      3.5689   -5.8259    1.3473   H         1 RES1   0.0000
   180 H110      0.7143   -6.4763    0.5196   H         1 RES1   0.0000
   181 H111      1.7132   -7.4070    1.6399   H         1 RES1   0.0000
   182 H112      2.3047   -7.0082   -1.3318   H         1 RES1   0.0000
   183 H113      1.7405   -8.4684   -0.5396   H         1 RES1   0.0000
   184 H114      3.3497   -7.8561   -0.1868   H         1 RES1   0.0000
   185 C58       0.1261    5.8901   -3.7896   C.3       1 RES1   0.0000
   186 C59       1.3428    5.1355   -3.2635   C.3       1 RES1   0.0000
   187 C60       1.2380    4.8638   -1.7632   C.3       1 RES1   0.0000
   188 C61       2.5108    4.2316   -1.1973   C.3       1 RES1   0.0000
   189 N7        2.4085    4.0232    0.2449   N.am      1 RES1   0.0000
   190 C62       3.3338    4.8000    1.0524   C.3       1 RES1   0.0000
   191 C63       3.0200    6.2935    1.1501   C.3       1 RES1   0.0000
   192 C64       1.8510    6.6574    2.0656   C.3       1 RES1   0.0000
   193 C65       0.4710    6.2925    1.5240   C.3       1 RES1   0.0000
   194 C66       1.6903    2.9906    0.6922   C.2       1 RES1   0.0000
   195 O7        1.2659    2.0959   -0.0533   O.2       1 RES1   0.0000
   196 C67       1.3743    2.9136    2.1822   C.3       1 RES1   0.0000
   197 C68      -0.1170    2.6439    2.3818   C.2       1 RES1   0.0000
   198 O8       -0.7181    1.8443    1.6438   O.2       1 RES1   0.0000
   199 N8       -0.7173    3.2796    3.3909   N.am      1 RES1   0.0000
   200 C69      -0.0191    4.0806    4.3884   C.3       1 RES1   0.0000
   201 C70       0.7926    3.2087    5.3541   C.3       1 RES1   0.0000
   202 C71       1.3991    3.9898    6.5248   C.3       1 RES1   0.0000
   203 C72       0.3648    4.5168    7.5104   C.3       1 RES1   0.0000
   204 C73      -2.1397    3.0689    3.6372   C.3       1 RES1   0.0000
   205 C74      -3.0060    3.8210    2.6267   C.3       1 RES1   0.0000
   206 C75      -4.5038    3.6848    2.9091   C.3       1 RES1   0.0000
   207 C76      -4.9479    4.1880    4.2786   C.3       1 RES1   0.0000
   208 H115      0.2266    6.0675   -4.8570   H         1 RES1   0.0000
   209 H116      0.0248    6.8524   -3.2947   H         1 RES1   0.0000
   210 H117     -0.7825    5.3177   -3.6193   H         1 RES1   0.0000
   211 H118      2.2386    5.7262   -3.4647   H         1 RES1   0.0000
   212 H119      1.4335    4.1878   -3.7955   H         1 RES1   0.0000
   213 H120      0.4084    4.1813   -1.5749   H         1 RES1   0.0000
   214 H121      1.0343    5.8039   -1.2522   H         1 RES1   0.0000
   215 H122      3.3728    4.8722   -1.3907   H         1 RES1   0.0000
   216 H123      2.6744    3.2633   -1.6765   H         1 RES1   0.0000
   217 H124      4.3187    4.6959    0.5900   H         1 RES1   0.0000
   218 H125      3.4337    4.3711    2.0475   H         1 RES1   0.0000
   219 H126      2.8401    6.7019    0.1573   H         1 RES1   0.0000
   220 H127      3.9154    6.7830    1.5389   H         1 RES1   0.0000
   221 H128      1.8749    7.7376    2.2198   H         1 RES1   0.0000
   222 H129      2.0107    6.1989    3.0459   H         1 RES1   0.0000
   223 H130      0.2832    6.8278    0.5983   H         1 RES1   0.0000
   224 H131     -0.2898    6.5924    2.2395   H         1 RES1   0.0000
   225 H132      0.3585    5.2290    1.3291   H         1 RES1   0.0000
   226 H133      1.6997    3.7831    2.7365   H         1 RES1   0.0000
   227 H134      1.8893    2.0321    2.5603   H         1 RES1   0.0000
   228 H135     -0.7553    4.6459    4.9548   H         1 RES1   0.0000
   229 H136      0.6236    4.8224    3.9178   H         1 RES1   0.0000
   230 H137      1.6127    2.7379    4.8154   H         1 RES1   0.0000
   231 H138      0.1612    2.4133    5.7540   H         1 RES1   0.0000
   232 H139      1.9914    4.8221    6.1415   H         1 RES1   0.0000
   233 H140      2.0834    3.3262    7.0609   H         1 RES1   0.0000
   234 H141     -0.2753    5.2644    7.0513   H         1 RES1   0.0000
   235 H142      0.8669    4.9817    8.3534   H         1 RES1   0.0000
   236 H143     -0.2548    3.7063    7.8857   H         1 RES1   0.0000
   237 H144     -2.3684    3.4017    4.6488   H         1 RES1   0.0000
   238 H145     -2.3637    2.0007    3.5906   H         1 RES1   0.0000
   239 H146     -2.7987    3.4237    1.6307   H         1 RES1   0.0000
   240 H147     -2.7345    4.8767    2.6274   H         1 RES1   0.0000
   241 H148     -4.7941    2.6382    2.8106   H         1 RES1   0.0000
   242 H149     -5.0339    4.2544    2.1434   H         1 RES1   0.0000
   243 H150     -4.5544    3.5799    5.0896   H         1 RES1   0.0000
   244 H151     -6.0316    4.1467    4.3409   H         1 RES1   0.0000
   245 H152     -4.6398    5.2179    4.4293   H         1 RES1   0.0000
   246 O9       -0.8694    1.6218   -1.7304   O.3       1 RES1   0.0000
   247 H153     -1.6162    2.0680   -1.3104   H         1 RES1   0.0000
   248 H154     -1.2367    1.0157   -2.3909   H         1 RES1   0.0000
@<TRIPOS>BOND
     1     1    12    1
     2     1    15    1
     3     1    73    1
     4     1    76    1
     5     1   134    1
     6     1   137    1
     7     1   195    1
     8     1   198    1
     9     1   246    1
    10     2     3    1
    11     2    25    1
    12     2    26    1
    13     2    27    1
    14     3     4    1
    15     3    28    1
    16     3    29    1
    17     4     5    1
    18     4    30    1
    19     4    31    1
    20     5     6    1
    21     5    32    1
    22     5    33    1
    23     6     7    1
    24     6    11    1
    25     7     8    1
    26     7    34    1
    27     7    35    1
    28     8     9    1
    29     8    36    1
    30     8    37    1
    31     9    10    1
    32     9    38    1
    33     9    39    1
    34    10    40    1
    35    10    41    1
    36    10    42    1
    37    11    12    2
    38    11    13    1
    39    13    14    1
    40    13    43    1
    41    13    44    1
    42    14    15    2
    43    14    16    1
    44    16    17    1
    45    16    21    1
    46    17    18    1
    47    17    45    1
    48    17    46    1
    49    18    19    1
    50    18    47    1
    51    18    48    1
    52    19    20    1
    53    19    49    1
    54    19    50    1
    55    20    51    1
    56    20    52    1
    57    20    53    1
    58    21    22    1
    59    21    54    1
    60    21    55    1
    61    22    23    1
    62    22    56    1
    63    22    57    1
    64    23    24    1
    65    23    58    1
    66    23    59    1
    67    24    60    1
    68    24    61    1
    69    24    62    1
    70    63    64    1
    71    63    86    1
    72    63    87    1
    73    63    88    1
    74    64    65    1
    75    64    89    1
    76    64    90    1
    77    65    66    1
    78    65    91    1
    79    65    92    1
    80    66    67    1
    81    66    93    1
    82    66    94    1
    83    67    68    1
    84    67    72    1
    85    68    69    1
    86    68    95    1
    87    68    96    1
    88    69    70    1
    89    69    97    1
    90    69    98    1
    91    70    71    1
    92    70    99    1
    93    70   100    1
    94    71   101    1
    95    71   102    1
    96    71   103    1
    97    72    73    2
    98    72    74    1
    99    74    75    1
   100    74   104    1
   101    74   105    1
   102    75    76    2
   103    75    77    1
   104    77    78    1
   105    77    82    1
   106    78    79    1
   107    78   106    1
   108    78   107    1
   109    79    80    1
   110    79   108    1
   111    79   109    1
   112    80    81    1
   113    80   110    1
   114    80   111    1
   115    81   112    1
   116    81   113    1
   117    81   114    1
   118    82    83    1
   119    82   115    1
   120    82   116    1
   121    83    84    1
   122    83   117    1
   123    83   118    1
   124    84    85    1
   125    84   119    1
   126    84   120    1
   127    85   121    1
   128    85   122    1
   129    85   123    1
   130   124   125    1
   131   124   147    1
   132   124   148    1
   133   124   149    1
   134   125   126    1
   135   125   150    1
   136   125   151    1
   137   126   127    1
   138   126   152    1
   139   126   153    1
   140   127   128    1
   141   127   154    1
   142   127   155    1
   143   128   129    1
   144   128   133    1
   145   129   130    1
   146   129   156    1
   147   129   157    1
   148   130   131    1
   149   130   158    1
   150   130   159    1
   151   131   132    1
   152   131   160    1
   153   131   161    1
   154   132   162    1
   155   132   163    1
   156   132   164    1
   157   133   134    2
   158   133   135    1
   159   135   136    1
   160   135   165    1
   161   135   166    1
   162   136   137    2
   163   136   138    1
   164   138   139    1
   165   138   143    1
   166   139   140    1
   167   139   167    1
   168   139   168    1
   169   140   141    1
   170   140   169    1
   171   140   170    1
   172   141   142    1
   173   141   171    1
   174   141   172    1
   175   142   173    1
   176   142   174    1
   177   142   175    1
   178   143   144    1
   179   143   176    1
   180   143   177    1
   181   144   145    1
   182   144   178    1
   183   144   179    1
   184   145   146    1
   185   145   180    1
   186   145   181    1
   187   146   182    1
   188   146   183    1
   189   146   184    1
   190   185   186    1
   191   185   208    1
   192   185   209    1
   193   185   210    1
   194   186   187    1
   195   186   211    1
   196   186   212    1
   197   187   188    1
   198   187   213    1
   199   187   214    1
   200   188   189    1
   201   188   215    1
   202   188   216    1
   203   189   190    1
   204   189   194    1
   205   190   191    1
   206   190   217    1
   207   190   218    1
   208   191   192    1
   209   191   219    1
   210   191   220    1
   211   192   193    1
   212   192   221    1
   213   192   222    1
   214   193   223    1
   215   193   224    1
   216   193   225    1
   217   194   195    2
   218   194   196    1
   219   196   197    1
   220   196   226    1
   221   196   227    1
   222   197   198    2
   223   197   199    1
   224   199   200    1
   225   199   204    1
   226   200   201    1
   227   200   228    1
   228   200   229    1
   229   201   202    1
   230   201   230    1
   231   201   231    1
   232   202   203    1
   233   202   232    1
   234   202   233    1
   235   203   234    1
   236   203   235    1
   237   203   236    1
   238   204   205    1
   239   204   237    1
   240   204   238    1
   241   205   206    1
   242   205   239    1
   243   205   240    1
   244   206   207    1
   245   206   241    1
   246   206   242    1
   247   207   243    1
   248   207   244    1
   249   207   245    1
   250   246   247    1
   251   246   248    1
@<TRIPOS>SUBSTRUCTURE
     1 RES1      248 GROUP             0 ****  ****    0  
