@<TRIPOS>MOLECULE
tri_tri_mer_capped_0_nunpairedes_0_charge_3 Charge: 3 Unpaired_Electrons: 2 XTB_Unpaired_Electrons: 0 XTB_Charge: 3
   120   133     1     0     0
SMALL
NoCharges
****
Generated from Architector

@<TRIPOS>ATOM
     1 Pr1       0.0203   -0.4417   -0.5709   Pr        1 RES1   0.0000
     2 C1       -4.4896   -3.3556   -0.1349   C.3       1 RES1   0.0000
     3 C2       -3.2375   -3.9957   -0.7422   C.3       1 RES1   0.0000
     4 C3       -1.9002   -3.2400   -0.5139   C.3       1 RES1   0.0000
     5 C4       -1.1096   -3.7839    0.6968   C.3       1 RES1   0.0000
     6 C5       -1.7564   -3.3598    2.0283   C.3       1 RES1   0.0000
     7 C6       -0.8365   -3.4148    3.2504   C.3       1 RES1   0.0000
     8 N1        0.2120   -2.3866    3.3272   N.ar      1 RES1   0.0000
     9 C7        0.8982   -2.1397    4.5211   C.ar      1 RES1   0.0000
    10 C8        0.0253   -2.1871    5.7043   C.ar      1 RES1   0.0000
    11 C9       -1.0796   -1.3274    5.6354   C.ar      1 RES1   0.0000
    12 C10      -1.9428   -1.2097    6.7048   C.ar      1 RES1   0.0000
    13 C11      -1.7155   -1.9525    7.8533   C.ar      1 RES1   0.0000
    14 C12      -0.6266   -2.8048    7.9229   C.ar      1 RES1   0.0000
    15 C13       0.2494   -2.9223    6.8565   C.ar      1 RES1   0.0000
    16 C14       2.1403   -1.5585    4.5485   C.ar      1 RES1   0.0000
    17 C15       2.6830   -1.0679    5.8481   C.ar      1 RES1   0.0000
    18 C16       2.3043    0.2259    6.2027   C.ar      1 RES1   0.0000
    19 C17       2.7005    0.7770    7.4083   C.ar      1 RES1   0.0000
    20 C18       3.4995    0.0422    8.2699   C.ar      1 RES1   0.0000
    21 C19       3.8981   -1.2349    7.9137   C.ar      1 RES1   0.0000
    22 C20       3.4971   -1.7942    6.7076   C.ar      1 RES1   0.0000
    23 C21       2.7268   -1.1114    3.3136   C.ar      1 RES1   0.0000
    24 C22       3.9683   -0.4708    3.1396   C.ar      1 RES1   0.0000
    25 C23       4.2083    0.2705    1.9784   C.ar      1 RES1   0.0000
    26 C24       5.3210    1.1674    1.7846   C.ar      1 RES1   0.0000
    27 C25       5.2524    2.1915    0.9009   C.ar      1 RES1   0.0000
    28 C26       4.0533    2.4362    0.1328   C.ar      1 RES1   0.0000
    29 C27       3.6281    3.6936   -0.2916   C.ar      1 RES1   0.0000
    30 C28       2.2566    3.8808   -0.5392   C.ar      1 RES1   0.0000
    31 C29       1.5821    5.1216   -0.3275   C.ar      1 RES1   0.0000
    32 C30       2.2271    6.4411   -0.4799   C.ar      1 RES1   0.0000
    33 C31       2.2264    7.0236   -1.7437   C.ar      1 RES1   0.0000
    34 C32       2.6684    8.3251   -1.9025   C.ar      1 RES1   0.0000
    35 C33       3.1216    9.0394   -0.8038   C.ar      1 RES1   0.0000
    36 C34       3.1510    8.4504    0.4503   C.ar      1 RES1   0.0000
    37 C35       2.7047    7.1517    0.6143   C.ar      1 RES1   0.0000
    38 C36       0.2916    5.0968    0.1352   C.ar      1 RES1   0.0000
    39 C37      -0.3576    6.3120    0.6898   C.ar      1 RES1   0.0000
    40 C38      -0.3245    6.5793    2.0612   C.ar      1 RES1   0.0000
    41 C39      -1.0556    7.6344    2.5843   C.ar      1 RES1   0.0000
    42 C40      -1.8024    8.4402    1.7407   C.ar      1 RES1   0.0000
    43 C41      -1.7931    8.2179    0.3733   C.ar      1 RES1   0.0000
    44 C42      -1.0694    7.1613   -0.1541   C.ar      1 RES1   0.0000
    45 N2       -0.4421    3.9283    0.1990   N.ar      1 RES1   0.0000
    46 C43      -1.6493    3.8396    1.0335   C.3       1 RES1   0.0000
    47 C44      -2.9262    4.5276    0.5279   C.3       1 RES1   0.0000
    48 C45      -3.3914    4.2824   -0.9072   C.3       1 RES1   0.0000
    49 C46      -4.0014    2.8991   -1.1857   C.3       1 RES1   0.0000
    50 C47      -3.0933    2.0601   -2.0818   C.3       1 RES1   0.0000
    51 C48      -3.7237    0.7699   -2.6118   C.3       1 RES1   0.0000
    52 C49       0.0390    2.7884   -0.3399   C.ar      1 RES1   0.0000
    53 O1       -0.6401    1.7164   -0.3265   O.2       1 RES1   0.0000
    54 C50       1.4464    2.7337   -0.6520   C.ar      1 RES1   0.0000
    55 N3        1.9277    1.4786   -0.5565   N.ar      1 RES1   0.0000
    56 C51       3.1250    1.3629    0.0274   C.ar      1 RES1   0.0000
    57 C52       3.2084    0.2696    0.9655   C.ar      1 RES1   0.0000
    58 N4        2.1101   -0.4823    1.0400   N.ar      1 RES1   0.0000
    59 C53       1.8565   -1.0943    2.1984   C.ar      1 RES1   0.0000
    60 C54       0.5124   -1.6133    2.2790   C.ar      1 RES1   0.0000
    61 O2       -0.3296   -1.2558    1.4085   O.2       1 RES1   0.0000
    62 H1       -5.3211   -4.0583   -0.2082   H         1 RES1   0.0000
    63 H2       -4.7756   -2.4476   -0.6675   H         1 RES1   0.0000
    64 H3       -4.3480   -3.1184    0.9174   H         1 RES1   0.0000
    65 H4       -3.4071   -4.1144   -1.8147   H         1 RES1   0.0000
    66 H5       -3.1365   -5.0033   -0.3304   H         1 RES1   0.0000
    67 H6       -2.1021   -2.1506   -0.3674   H         1 RES1   0.0000
    68 H7       -1.2867   -3.3713   -1.4186   H         1 RES1   0.0000
    69 H8       -0.0695   -3.4230    0.6350   H         1 RES1   0.0000
    70 H9       -1.0879   -4.8775    0.6535   H         1 RES1   0.0000
    71 H10      -2.5989   -4.0276    2.2131   H         1 RES1   0.0000
    72 H11      -2.1611   -2.3484    1.9562   H         1 RES1   0.0000
    73 H12      -0.2905   -4.3617    3.2616   H         1 RES1   0.0000
    74 H13      -1.4505   -3.3617    4.1469   H         1 RES1   0.0000
    75 H14      -1.2348   -0.7460    4.7341   H         1 RES1   0.0000
    76 H15      -2.7844   -0.5352    6.6397   H         1 RES1   0.0000
    77 H16      -2.3989   -1.8640    8.6817   H         1 RES1   0.0000
    78 H17      -0.4607   -3.3753    8.8212   H         1 RES1   0.0000
    79 H18       1.0819   -3.6029    6.9081   H         1 RES1   0.0000
    80 H19       1.6831    0.8007    5.5301   H         1 RES1   0.0000
    81 H20       2.3990    1.7794    7.6740   H         1 RES1   0.0000
    82 H21       3.8241    0.4682    9.2090   H         1 RES1   0.0000
    83 H22       4.5354   -1.7961    8.5807   H         1 RES1   0.0000
    84 H23       3.8214   -2.7893    6.4444   H         1 RES1   0.0000
    85 H24       4.7100   -0.5062    3.9270   H         1 RES1   0.0000
    86 H25       6.1942    1.0281    2.4072   H         1 RES1   0.0000
    87 H26       6.0884    2.8698    0.8047   H         1 RES1   0.0000
    88 H27       4.2665    4.5598   -0.2217   H         1 RES1   0.0000
    89 H28       1.8504    6.4583   -2.5856   H         1 RES1   0.0000
    90 H29       2.6472    8.7820   -2.8815   H         1 RES1   0.0000
    91 H30       3.4429   10.0612   -0.9293   H         1 RES1   0.0000
    92 H31       3.5090    9.0125    1.3006   H         1 RES1   0.0000
    93 H32       2.7203    6.6953    1.5923   H         1 RES1   0.0000
    94 H33       0.2738    5.9675    2.7258   H         1 RES1   0.0000
    95 H34      -1.0427    7.8342    3.6481   H         1 RES1   0.0000
    96 H35      -2.4031    9.2314    2.1555   H         1 RES1   0.0000
    97 H36      -2.3589    8.8665   -0.2778   H         1 RES1   0.0000
    98 H37      -1.0681    6.9801   -1.2188   H         1 RES1   0.0000
    99 H38      -1.4016    4.3102    1.9902   H         1 RES1   0.0000
   100 H39      -1.8111    2.7743    1.2165   H         1 RES1   0.0000
   101 H40      -2.7808    5.5990    0.6550   H         1 RES1   0.0000
   102 H41      -3.7244    4.2247    1.2087   H         1 RES1   0.0000
   103 H42      -2.5775    4.4882   -1.6041   H         1 RES1   0.0000
   104 H43      -4.1498    5.0389   -1.0942   H         1 RES1   0.0000
   105 H44      -4.9652    3.0125   -1.6792   H         1 RES1   0.0000
   106 H45      -4.1991    2.3964   -0.2369   H         1 RES1   0.0000
   107 H46      -2.1799    1.8211   -1.5384   H         1 RES1   0.0000
   108 H47      -2.8140    2.6773   -2.9364   H         1 RES1   0.0000
   109 H48      -4.3486    0.2662   -1.8753   H         1 RES1   0.0000
   110 H49      -2.9472    0.0692   -2.9380   H         1 RES1   0.0000
   111 H50      -4.3606    0.9989   -3.4622   H         1 RES1   0.0000
   112 O3       -0.1365   -0.2039   -3.0839   O.3       1 RES1   0.0000
   113 H51      -0.2275   -0.7371   -3.8927   H         1 RES1   0.0000
   114 H52      -0.3037    0.7120   -3.3617   H         1 RES1   0.0000
   115 O4        1.6677   -2.1406   -1.7043   O.3       1 RES1   0.0000
   116 H53       1.9465   -3.0674   -1.6104   H         1 RES1   0.0000
   117 H54       2.3311   -1.7646   -2.3040   H         1 RES1   0.0000
   118 O5       -2.5368   -0.0753    0.2833   O.3       1 RES1   0.0000
   119 H55      -2.5569    0.1611    1.2203   H         1 RES1   0.0000
   120 H56      -3.2833    0.4024   -0.1153   H         1 RES1   0.0000
@<TRIPOS>BOND
     1     1     8    1
     2     1    45    1
     3     1    53    1
     4     1    55    1
     5     1    58    1
     6     1    61    1
     7     1   112    1
     8     1   115    1
     9     1   118    1
    10     2     3    1
    11     2    62    1
    12     2    63    1
    13     2    64    1
    14     3     4    1
    15     3    65    1
    16     3    66    1
    17     4     5    1
    18     4    67    1
    19     4    68    1
    20     5     6    1
    21     5    69    1
    22     5    70    1
    23     6     7    1
    24     6    71    1
    25     6    72    1
    26     7     8    1
    27     7    73    1
    28     7    74    1
    29     8     9    1
    30     8    60    1
    31     9    10    1
    32     9    16    2
    33    10    11    1
    34    10    15    2
    35    11    12    2
    36    11    75    1
    37    12    13    1
    38    12    76    1
    39    13    14    2
    40    13    77    1
    41    14    15    1
    42    14    78    1
    43    15    79    1
    44    16    17    1
    45    16    23    1
    46    17    18    1
    47    17    22    2
    48    18    19    2
    49    18    80    1
    50    19    20    1
    51    19    81    1
    52    20    21    2
    53    20    82    1
    54    21    22    1
    55    21    83    1
    56    22    84    1
    57    23    24    1
    58    23    59    2
    59    24    25    2
    60    24    85    1
    61    25    26    1
    62    25    57    1
    63    26    27    2
    64    26    86    1
    65    27    28    1
    66    27    87    1
    67    28    29    1
    68    28    56    2
    69    29    30    2
    70    29    88    1
    71    30    31    1
    72    30    54    1
    73    31    32    1
    74    31    38    2
    75    32    33    1
    76    32    37    2
    77    33    34    2
    78    33    89    1
    79    34    35    1
    80    34    90    1
    81    35    36    2
    82    35    91    1
    83    36    37    1
    84    36    92    1
    85    37    93    1
    86    38    39    1
    87    38    45    1
    88    39    40    1
    89    39    44    2
    90    40    41    2
    91    40    94    1
    92    41    42    1
    93    41    95    1
    94    42    43    2
    95    42    96    1
    96    43    44    1
    97    43    97    1
    98    44    98    1
    99    45    46    1
   100    45    52    1
   101    46    47    1
   102    46    99    1
   103    46   100    1
   104    47    48    1
   105    47   101    1
   106    47   102    1
   107    48    49    1
   108    48   103    1
   109    48   104    1
   110    49    50    1
   111    49   105    1
   112    49   106    1
   113    50    51    1
   114    50   107    1
   115    50   108    1
   116    51   109    1
   117    51   110    1
   118    51   111    1
   119    52    53    2
   120    52    54    1
   121    54    55    2
   122    55    56    1
   123    56    57    1
   124    57    58    2
   125    58    59    1
   126    59    60    1
   127    60    61    2
   128   112   113    1
   129   112   114    1
   130   115   116    1
   131   115   117    1
   132   118   119    1
   133   118   120    1
@<TRIPOS>SUBSTRUCTURE
     1 RES1      120 GROUP             0 ****  ****    0  
