@<TRIPOS>MOLECULE
tri_tri_mer_capped_0_nunpairedes_0_charge_3 Charge: 3 Unpaired_Electrons: 2 XTB_Unpaired_Electrons: 0 XTB_Charge: 3
   340   345     1     0     0
SMALL
NoCharges
****
Generated from Architector

@<TRIPOS>ATOM
     1 Pr1      -0.1159    0.4793   -0.4191   Pr        1 RES1   0.0000
     2 C1       -9.2120   -1.2204    0.0680   C.3       1 RES1   0.0000
     3 C2       -8.7483   -1.6255   -1.3347   C.3       1 RES1   0.0000
     4 C3       -8.6929   -0.4429   -2.3052   C.3       1 RES1   0.0000
     5 C4       -8.2938   -0.8000   -3.7468   C.3       1 RES1   0.0000
     6 C5       -6.8099   -1.0428   -4.0830   C.3       1 RES1   0.0000
     7 C6       -5.9373    0.2229   -4.1871   C.3       1 RES1   0.0000
     8 C7       -4.5824   -0.1218   -4.8266   C.3       1 RES1   0.0000
     9 C8       -3.5720    1.0229   -5.0285   C.3       1 RES1   0.0000
    10 N1       -2.8680    1.4217   -3.8165   N.am      1 RES1   0.0000
    11 C9       -3.5953    2.2642   -2.8749   C.3       1 RES1   0.0000
    12 C10      -2.9527    3.6276   -2.5993   C.3       1 RES1   0.0000
    13 C11      -2.6045    4.3832   -3.8844   C.3       1 RES1   0.0000
    14 C12      -1.2003    4.0375   -4.3951   C.3       1 RES1   0.0000
    15 C13      -0.3890    5.2691   -4.8191   C.3       1 RES1   0.0000
    16 C14       1.0782    5.2063   -4.3895   C.3       1 RES1   0.0000
    17 C15       1.3693    5.6332   -2.9482   C.3       1 RES1   0.0000
    18 C16       0.8397    4.6987   -1.8576   C.3       1 RES1   0.0000
    19 C17      -1.6985    0.9659   -3.3869   C.2       1 RES1   0.0000
    20 O1       -1.2235    1.3318   -2.2874   O.2       1 RES1   0.0000
    21 C18      -0.8990   -0.0181   -4.2183   C.3       1 RES1   0.0000
    22 O2        0.3621   -0.1647   -3.5908   O.3       1 RES1   0.0000
    23 C19       0.9253   -1.4339   -3.8590   C.3       1 RES1   0.0000
    24 C20       0.5477   -2.3984   -2.7293   C.2       1 RES1   0.0000
    25 O3        0.3509   -1.8827   -1.6049   O.2       1 RES1   0.0000
    26 N2        0.5156   -3.7035   -2.9877   N.am      1 RES1   0.0000
    27 C21       0.4513   -4.2974   -4.3338   C.3       1 RES1   0.0000
    28 C22       1.7649   -4.4909   -5.1053   C.3       1 RES1   0.0000
    29 C23       1.5298   -5.1812   -6.4658   C.3       1 RES1   0.0000
    30 C24       1.3136   -4.2300   -7.6495   C.3       1 RES1   0.0000
    31 C25      -0.0848   -3.6242   -7.7840   C.3       1 RES1   0.0000
    32 C26      -1.1778   -4.6849   -7.9560   C.3       1 RES1   0.0000
    33 C27      -2.4141   -4.1690   -8.6950   C.3       1 RES1   0.0000
    34 C28      -3.1492   -3.0426   -7.9799   C.3       1 RES1   0.0000
    35 C29       0.4976   -4.6348   -1.8527   C.3       1 RES1   0.0000
    36 C30      -0.6479   -5.6495   -1.8628   C.3       1 RES1   0.0000
    37 C31      -2.0250   -4.9833   -1.8344   C.3       1 RES1   0.0000
    38 C32      -3.1796   -5.9614   -2.1081   C.3       1 RES1   0.0000
    39 C33      -3.5849   -6.0636   -3.5819   C.3       1 RES1   0.0000
    40 C34      -4.8633   -6.8896   -3.7814   C.3       1 RES1   0.0000
    41 C35      -6.1438   -6.2022   -3.2715   C.3       1 RES1   0.0000
    42 C36      -6.6575   -6.7570   -1.9449   C.3       1 RES1   0.0000
    43 H1       -8.9816   -2.0050    0.7873   H         1 RES1   0.0000
    44 H2      -10.2871   -1.0592    0.0785   H         1 RES1   0.0000
    45 H3       -8.7393   -0.3001    0.4149   H         1 RES1   0.0000
    46 H4       -9.4509   -2.3639   -1.7203   H         1 RES1   0.0000
    47 H5       -7.7746   -2.1189   -1.2749   H         1 RES1   0.0000
    48 H6       -8.0330    0.3273   -1.9060   H         1 RES1   0.0000
    49 H7       -9.6943   -0.0070   -2.3388   H         1 RES1   0.0000
    50 H8       -8.6440    0.0079   -4.3906   H         1 RES1   0.0000
    51 H9       -8.8452   -1.7030   -4.0187   H         1 RES1   0.0000
    52 H10      -6.7948   -1.5276   -5.0616   H         1 RES1   0.0000
    53 H11      -6.3726   -1.7479   -3.3701   H         1 RES1   0.0000
    54 H12      -5.8114    0.6539   -3.1945   H         1 RES1   0.0000
    55 H13      -6.4471    0.9543   -4.8141   H         1 RES1   0.0000
    56 H14      -4.7831   -0.5238   -5.8200   H         1 RES1   0.0000
    57 H15      -4.0948   -0.9096   -4.2469   H         1 RES1   0.0000
    58 H16      -4.0862    1.9018   -5.4252   H         1 RES1   0.0000
    59 H17      -2.8418    0.7199   -5.7790   H         1 RES1   0.0000
    60 H18      -3.6095    1.7102   -1.9309   H         1 RES1   0.0000
    61 H19      -4.6029    2.4127   -3.2653   H         1 RES1   0.0000
    62 H20      -3.6588    4.2101   -2.0002   H         1 RES1   0.0000
    63 H21      -2.0526    3.4796   -1.9949   H         1 RES1   0.0000
    64 H22      -2.6648    5.4567   -3.6918   H         1 RES1   0.0000
    65 H23      -3.3525    4.1669   -4.6486   H         1 RES1   0.0000
    66 H24      -1.2601    3.3488   -5.2373   H         1 RES1   0.0000
    67 H25      -0.6629    3.5134   -3.6079   H         1 RES1   0.0000
    68 H26      -0.8377    6.1696   -4.4005   H         1 RES1   0.0000
    69 H27      -0.4375    5.3683   -5.9049   H         1 RES1   0.0000
    70 H28       1.6508    5.8611   -5.0480   H         1 RES1   0.0000
    71 H29       1.4422    4.1918   -4.5380   H         1 RES1   0.0000
    72 H30       0.9655    6.6334   -2.7867   H         1 RES1   0.0000
    73 H31       2.4527    5.7073   -2.8404   H         1 RES1   0.0000
    74 H32      -0.2116    4.9010   -1.6687   H         1 RES1   0.0000
    75 H33       1.3785    4.8666   -0.9265   H         1 RES1   0.0000
    76 H34       0.9647    3.6437   -2.1196   H         1 RES1   0.0000
    77 H35      -0.7556    0.3165   -5.2552   H         1 RES1   0.0000
    78 H36      -1.4423   -0.9720   -4.2356   H         1 RES1   0.0000
    79 H37       2.0153   -1.3093   -3.8293   H         1 RES1   0.0000
    80 H38       0.6546   -1.7885   -4.8582   H         1 RES1   0.0000
    81 H39      -0.2531   -3.7264   -4.9430   H         1 RES1   0.0000
    82 H40       0.0312   -5.2944   -4.2072   H         1 RES1   0.0000
    83 H41       2.4320   -5.1173   -4.5095   H         1 RES1   0.0000
    84 H42       2.2690   -3.5417   -5.2890   H         1 RES1   0.0000
    85 H43       0.6957   -5.8802   -6.4026   H         1 RES1   0.0000
    86 H44       2.4182   -5.7662   -6.7008   H         1 RES1   0.0000
    87 H45       1.5094   -4.7806   -8.5725   H         1 RES1   0.0000
    88 H46       2.0525   -3.4255   -7.5955   H         1 RES1   0.0000
    89 H47      -0.0779   -2.9869   -8.6711   H         1 RES1   0.0000
    90 H48      -0.3040   -2.9843   -6.9242   H         1 RES1   0.0000
    91 H49      -1.4788   -5.0836   -6.9837   H         1 RES1   0.0000
    92 H50      -0.7650   -5.5161   -8.5329   H         1 RES1   0.0000
    93 H51      -3.1009   -5.0047   -8.8339   H         1 RES1   0.0000
    94 H52      -2.1090   -3.8280   -9.6851   H         1 RES1   0.0000
    95 H53      -3.4884   -3.3584   -6.9963   H         1 RES1   0.0000
    96 H54      -4.0193   -2.7521   -8.5595   H         1 RES1   0.0000
    97 H55      -2.5135   -2.1686   -7.8681   H         1 RES1   0.0000
    98 H56       0.4481   -4.0177   -0.9499   H         1 RES1   0.0000
    99 H57       1.4525   -5.1698   -1.8552   H         1 RES1   0.0000
   100 H58      -0.5320   -6.2798   -0.9788   H         1 RES1   0.0000
   101 H59      -0.5572   -6.3136   -2.7237   H         1 RES1   0.0000
   102 H60      -2.0574   -4.1684   -2.5668   H         1 RES1   0.0000
   103 H61      -2.1655   -4.5326   -0.8476   H         1 RES1   0.0000
   104 H62      -4.0498   -5.6150   -1.5518   H         1 RES1   0.0000
   105 H63      -2.9251   -6.9560   -1.7336   H         1 RES1   0.0000
   106 H64      -2.7758   -6.5136   -4.1673   H         1 RES1   0.0000
   107 H65      -3.7687   -5.0591   -3.9822   H         1 RES1   0.0000
   108 H66      -4.7515   -7.8567   -3.2901   H         1 RES1   0.0000
   109 H67      -4.9678   -7.0887   -4.8492   H         1 RES1   0.0000
   110 H68      -6.9348   -6.3349   -4.0113   H         1 RES1   0.0000
   111 H69      -5.9735   -5.1257   -3.1725   H         1 RES1   0.0000
   112 H70      -6.8278   -7.8276   -2.0290   H         1 RES1   0.0000
   113 H71      -7.6058   -6.2889   -1.6858   H         1 RES1   0.0000
   114 H72      -5.9553   -6.5843   -1.1305   H         1 RES1   0.0000
   115 C37      -6.2830    4.5390   -6.2675   C.3       1 RES1   0.0000
   116 C38      -6.7092    5.0088   -4.8793   C.3       1 RES1   0.0000
   117 C39      -7.7619    4.0999   -4.2351   C.3       1 RES1   0.0000
   118 C40      -8.0138    4.4103   -2.7577   C.3       1 RES1   0.0000
   119 C41      -6.8349    4.0634   -1.8418   C.3       1 RES1   0.0000
   120 C42      -7.0358    2.7039   -1.1676   C.3       1 RES1   0.0000
   121 C43      -5.8279    2.3417   -0.2984   C.3       1 RES1   0.0000
   122 C44      -5.7596    0.9104    0.2912   C.3       1 RES1   0.0000
   123 N3       -4.6323    0.0946   -0.1707   N.am      1 RES1   0.0000
   124 C45      -4.8781   -0.9595   -1.1532   C.3       1 RES1   0.0000
   125 C46      -4.2494   -2.3343   -0.9014   C.3       1 RES1   0.0000
   126 C47      -4.8243   -3.1956    0.2296   C.3       1 RES1   0.0000
   127 C48      -4.0726   -3.0664    1.5580   C.3       1 RES1   0.0000
   128 C49      -4.1527   -4.3600    2.3789   C.3       1 RES1   0.0000
   129 C50      -3.2220   -4.3958    3.6020   C.3       1 RES1   0.0000
   130 C51      -1.8748   -5.0911    3.3819   C.3       1 RES1   0.0000
   131 C52      -0.9542   -4.4144    2.3683   C.3       1 RES1   0.0000
   132 C53      -3.3777    0.4265    0.1002   C.2       1 RES1   0.0000
   133 O4       -2.3796   -0.1847   -0.3369   O.2       1 RES1   0.0000
   134 C54      -3.1679    1.6334    0.9902   C.3       1 RES1   0.0000
   135 O5       -1.7880    1.9238    1.0100   O.3       1 RES1   0.0000
   136 C55      -1.5904    3.0649    1.8190   C.3       1 RES1   0.0000
   137 C56      -0.1025    3.3898    1.8316   C.2       1 RES1   0.0000
   138 O6        0.6478    2.6953    1.1212   O.2       1 RES1   0.0000
   139 N4        0.2579    4.4301    2.5836   N.am      1 RES1   0.0000
   140 C57      -0.6640    5.0643    3.5343   C.3       1 RES1   0.0000
   141 C58      -0.8322    4.3128    4.8632   C.3       1 RES1   0.0000
   142 C59      -2.0498    4.8324    5.6464   C.3       1 RES1   0.0000
   143 C60      -2.0601    4.4314    7.1304   C.3       1 RES1   0.0000
   144 C61      -3.4542    4.1606    7.7157   C.3       1 RES1   0.0000
   145 C62      -4.3994    5.3578    7.8182   C.3       1 RES1   0.0000
   146 C63      -5.6181    5.0449    8.6955   C.3       1 RES1   0.0000
   147 C64      -6.5019    3.8924    8.2279   C.3       1 RES1   0.0000
   148 C65       1.5632    5.0583    2.3635   C.3       1 RES1   0.0000
   149 C66       1.4436    6.5673    2.0819   C.3       1 RES1   0.0000
   150 C67       0.3818    6.8825    1.0238   C.3       1 RES1   0.0000
   151 C68      -0.1926    8.3006    1.0479   C.3       1 RES1   0.0000
   152 C69      -1.3954    8.3535    0.1044   C.3       1 RES1   0.0000
   153 C70      -1.9687    9.7507   -0.1212   C.3       1 RES1   0.0000
   154 C71      -3.1525    9.7438   -1.0959   C.3       1 RES1   0.0000
   155 C72      -2.7538    9.2683   -2.4896   C.3       1 RES1   0.0000
   156 H73      -5.5201    5.1990   -6.6736   H         1 RES1   0.0000
   157 H74      -7.1207    4.5427   -6.9578   H         1 RES1   0.0000
   158 H75      -5.8721    3.5295   -6.2455   H         1 RES1   0.0000
   159 H76      -7.1093    6.0206   -4.9642   H         1 RES1   0.0000
   160 H77      -5.8176    5.0723   -4.2500   H         1 RES1   0.0000
   161 H78      -7.4712    3.0495   -4.3365   H         1 RES1   0.0000
   162 H79      -8.7019    4.2316   -4.7713   H         1 RES1   0.0000
   163 H80      -8.8856    3.8411   -2.4277   H         1 RES1   0.0000
   164 H81      -8.2531    5.4668   -2.6595   H         1 RES1   0.0000
   165 H82      -6.7081    4.8246   -1.0722   H         1 RES1   0.0000
   166 H83      -5.9159    4.0411   -2.4266   H         1 RES1   0.0000
   167 H84      -7.2015    1.9549   -1.9418   H         1 RES1   0.0000
   168 H85      -7.9351    2.7454   -0.5512   H         1 RES1   0.0000
   169 H86      -5.8182    3.0726    0.5111   H         1 RES1   0.0000
   170 H87      -4.9509    2.5151   -0.9057   H         1 RES1   0.0000
   171 H88      -6.6718    0.3647    0.0564   H         1 RES1   0.0000
   172 H89      -5.6941    0.9777    1.3796   H         1 RES1   0.0000
   173 H90      -4.4606   -0.6036   -2.0989   H         1 RES1   0.0000
   174 H91      -5.9568   -1.0508   -1.2646   H         1 RES1   0.0000
   175 H92      -3.1735   -2.2088   -0.7616   H         1 RES1   0.0000
   176 H93      -4.3881   -2.8715   -1.8422   H         1 RES1   0.0000
   177 H94      -4.7565   -4.2389   -0.0802   H         1 RES1   0.0000
   178 H95      -5.8879   -3.0024    0.3700   H         1 RES1   0.0000
   179 H96      -4.4881   -2.2410    2.1389   H         1 RES1   0.0000
   180 H97      -3.0260   -2.8333    1.3561   H         1 RES1   0.0000
   181 H98      -3.9103   -5.2096    1.7372   H         1 RES1   0.0000
   182 H99      -5.1854   -4.4851    2.7118   H         1 RES1   0.0000
   183 H100     -3.7297   -4.9234    4.4124   H         1 RES1   0.0000
   184 H101     -3.0480   -3.3775    3.9516   H         1 RES1   0.0000
   185 H102     -2.0586   -6.1206    3.0708   H         1 RES1   0.0000
   186 H103     -1.3639   -5.1307    4.3476   H         1 RES1   0.0000
   187 H104     -1.3420   -4.5153    1.3563   H         1 RES1   0.0000
   188 H105      0.0265   -4.8867    2.4082   H         1 RES1   0.0000
   189 H106     -0.8391   -3.3524    2.5924   H         1 RES1   0.0000
   190 H107     -3.6941    2.5035    0.5888   H         1 RES1   0.0000
   191 H108     -3.5442    1.4377    2.0033   H         1 RES1   0.0000
   192 H109     -1.9759    2.8838    2.8301   H         1 RES1   0.0000
   193 H110     -2.1301    3.9248    1.3904   H         1 RES1   0.0000
   194 H111     -1.6378    5.2164    3.0644   H         1 RES1   0.0000
   195 H112     -0.2864    6.0574    3.7625   H         1 RES1   0.0000
   196 H113      0.0683    4.4481    5.4533   H         1 RES1   0.0000
   197 H114     -0.9353    3.2429    4.6774   H         1 RES1   0.0000
   198 H115     -2.9581    4.4503    5.1793   H         1 RES1   0.0000
   199 H116     -2.0799    5.9183    5.5851   H         1 RES1   0.0000
   200 H117     -1.5736    5.2065    7.7235   H         1 RES1   0.0000
   201 H118     -1.4864    3.5098    7.2602   H         1 RES1   0.0000
   202 H119     -3.3085    3.7715    8.7259   H         1 RES1   0.0000
   203 H120     -3.9351    3.3681    7.1369   H         1 RES1   0.0000
   204 H121     -4.7223    5.6833    6.8267   H         1 RES1   0.0000
   205 H122     -3.8684    6.1885    8.2882   H         1 RES1   0.0000
   206 H123     -6.2263    5.9490    8.7631   H         1 RES1   0.0000
   207 H124     -5.2654    4.8105    9.7016   H         1 RES1   0.0000
   208 H125     -6.8531    4.0426    7.2098   H         1 RES1   0.0000
   209 H126     -7.3665    3.8294    8.8842   H         1 RES1   0.0000
   210 H127     -5.9811    2.9394    8.2795   H         1 RES1   0.0000
   211 H128      1.9959    4.5400    1.5043   H         1 RES1   0.0000
   212 H129      2.2205    4.9011    3.2249   H         1 RES1   0.0000
   213 H130      2.4168    6.9262    1.7452   H         1 RES1   0.0000
   214 H131      1.2298    7.0994    3.0089   H         1 RES1   0.0000
   215 H132     -0.4544    6.1867    1.1323   H         1 RES1   0.0000
   216 H133      0.8116    6.7112    0.0393   H         1 RES1   0.0000
   217 H134      0.5563    9.0219    0.7225   H         1 RES1   0.0000
   218 H135     -0.5035    8.5763    2.0558   H         1 RES1   0.0000
   219 H136     -2.1866    7.7074    0.4981   H         1 RES1   0.0000
   220 H137     -1.0821    7.9485   -0.8588   H         1 RES1   0.0000
   221 H138     -1.1875   10.3975   -0.5249   H         1 RES1   0.0000
   222 H139     -2.2901   10.1739    0.8327   H         1 RES1   0.0000
   223 H140     -3.5467   10.7587   -1.1659   H         1 RES1   0.0000
   224 H141     -3.9583    9.1154   -0.7071   H         1 RES1   0.0000
   225 H142     -1.8958    9.8372   -2.8376   H         1 RES1   0.0000
   226 H143     -3.5685    9.4076   -3.1952   H         1 RES1   0.0000
   227 H144     -2.4883    8.2126   -2.4854   H         1 RES1   0.0000
   228 C73       7.2679    0.0259   -6.5324   C.3       1 RES1   0.0000
   229 C74       7.7635   -1.4162   -6.6178   C.3       1 RES1   0.0000
   230 C75       8.7080   -1.8227   -5.4857   C.3       1 RES1   0.0000
   231 C76       8.0161   -1.8893   -4.1160   C.3       1 RES1   0.0000
   232 C77       8.5285   -0.8252   -3.1434   C.3       1 RES1   0.0000
   233 C78       7.6566   -0.6823   -1.8890   C.3       1 RES1   0.0000
   234 C79       6.3528    0.0610   -2.1901   C.3       1 RES1   0.0000
   235 C80       5.5378    0.2967   -0.9165   C.3       1 RES1   0.0000
   236 N5        4.2334    0.8958   -1.1784   N.am      1 RES1   0.0000
   237 C81       4.2041    2.2347   -1.7749   C.3       1 RES1   0.0000
   238 C82       3.4693    2.3410   -3.1127   C.3       1 RES1   0.0000
   239 C83       4.2609    1.8856   -4.3425   C.3       1 RES1   0.0000
   240 C84       3.4093    1.0939   -5.3320   C.3       1 RES1   0.0000
   241 C85       2.2078    1.8633   -5.8684   C.3       1 RES1   0.0000
   242 C86       1.5025    1.0795   -6.9669   C.3       1 RES1   0.0000
   243 C87       0.2965    1.8258   -7.5291   C.3       1 RES1   0.0000
   244 C88      -0.3074    1.1170   -8.7340   C.3       1 RES1   0.0000
   245 C89       3.0783    0.4290   -0.7363   C.2       1 RES1   0.0000
   246 O7        1.9937    1.0019   -0.9728   O.2       1 RES1   0.0000
   247 C90       3.0371   -0.8117    0.1707   C.3       1 RES1   0.0000
   248 O8        1.7621   -0.8096    0.8032   O.3       1 RES1   0.0000
   249 C91       1.7933   -1.1259    2.1872   C.3       1 RES1   0.0000
   250 C92       0.4137   -0.7490    2.7519   C.2       1 RES1   0.0000
   251 O9       -0.4240   -0.3236    1.9345   O.2       1 RES1   0.0000
   252 N6        0.2228   -0.9408    4.0490   N.am      1 RES1   0.0000
   253 C93       1.3353   -1.3191    4.9284   C.3       1 RES1   0.0000
   254 C94       2.2651   -0.1635    5.3130   C.3       1 RES1   0.0000
   255 C95       1.5870    0.9560    6.0996   C.3       1 RES1   0.0000
   256 C96       2.5591    2.1214    6.2866   C.3       1 RES1   0.0000
   257 C97       2.0157    3.2200    7.2089   C.3       1 RES1   0.0000
   258 C98       2.5635    4.5995    6.8393   C.3       1 RES1   0.0000
   259 C99       2.0154    5.7321    7.7075   C.3       1 RES1   0.0000
   260 C100      2.2697    7.0964    7.0785   C.3       1 RES1   0.0000
   261 C101     -1.0620   -0.9716    4.7688   C.3       1 RES1   0.0000
   262 C102     -2.3872   -0.5858    4.0909   C.3       1 RES1   0.0000
   263 C103     -2.9955    0.6980    4.6677   C.3       1 RES1   0.0000
   264 C104     -4.4913    0.8656    4.3562   C.3       1 RES1   0.0000
   265 C105     -4.9089    2.3333    4.4706   C.3       1 RES1   0.0000
   266 C106     -6.2695    2.6782    3.8688   C.3       1 RES1   0.0000
   267 C107     -6.4807    4.1944    3.7420   C.3       1 RES1   0.0000
   268 C108     -5.4281    4.9347    2.9154   C.3       1 RES1   0.0000
   269 H145      6.5896    0.2378   -7.3589   H         1 RES1   0.0000
   270 H146      8.0989    0.7256   -6.5941   H         1 RES1   0.0000
   271 H147      6.7327    0.2087   -5.6012   H         1 RES1   0.0000
   272 H148      8.2843   -1.5452   -7.5676   H         1 RES1   0.0000
   273 H149      6.9017   -2.0898   -6.6194   H         1 RES1   0.0000
   274 H150      9.5407   -1.1217   -5.4446   H         1 RES1   0.0000
   275 H151      9.1281   -2.7969   -5.7309   H         1 RES1   0.0000
   276 H152      8.1714   -2.8713   -3.6680   H         1 RES1   0.0000
   277 H153      6.9403   -1.7672   -4.2532   H         1 RES1   0.0000
   278 H154      8.5901    0.1431   -3.6477   H         1 RES1   0.0000
   279 H155      9.5373   -1.0977   -2.8296   H         1 RES1   0.0000
   280 H156      8.2063   -0.1135   -1.1354   H         1 RES1   0.0000
   281 H157      7.4399   -1.6726   -1.4784   H         1 RES1   0.0000
   282 H158      5.7542   -0.5200   -2.8943   H         1 RES1   0.0000
   283 H159      6.6153    1.0154   -2.6486   H         1 RES1   0.0000
   284 H160      6.0937    0.9693   -0.2541   H         1 RES1   0.0000
   285 H161      5.4211   -0.6621   -0.4111   H         1 RES1   0.0000
   286 H162      5.2299    2.5745   -1.8734   H         1 RES1   0.0000
   287 H163      3.6839    2.8764   -1.0576   H         1 RES1   0.0000
   288 H164      3.2151    3.3924   -3.2258   H         1 RES1   0.0000
   289 H165      2.5391    1.7748   -3.0507   H         1 RES1   0.0000
   290 H166      5.0781    1.2406   -4.0365   H         1 RES1   0.0000
   291 H167      4.7021    2.7487   -4.8430   H         1 RES1   0.0000
   292 H168      3.0581    0.1846   -4.8369   H         1 RES1   0.0000
   293 H169      4.0444    0.7885   -6.1662   H         1 RES1   0.0000
   294 H170      2.5434    2.8167   -6.2761   H         1 RES1   0.0000
   295 H171      1.4951    2.0654   -5.0648   H         1 RES1   0.0000
   296 H172      1.1943    0.1068   -6.5733   H         1 RES1   0.0000
   297 H173      2.2064    0.8951   -7.7778   H         1 RES1   0.0000
   298 H174      0.6047    2.8288   -7.8224   H         1 RES1   0.0000
   299 H175     -0.4649    1.9459   -6.7508   H         1 RES1   0.0000
   300 H176      0.4481    0.9491   -9.4946   H         1 RES1   0.0000
   301 H177     -1.0993    1.7148   -9.1762   H         1 RES1   0.0000
   302 H178     -0.7148    0.1500   -8.4496   H         1 RES1   0.0000
   303 H179      3.8312   -0.7338    0.9186   H         1 RES1   0.0000
   304 H180      3.1571   -1.7386   -0.4086   H         1 RES1   0.0000
   305 H181      2.5995   -0.5761    2.6837   H         1 RES1   0.0000
   306 H182      1.9694   -2.2020    2.3263   H         1 RES1   0.0000
   307 H183      1.9166   -2.1236    4.4760   H         1 RES1   0.0000
   308 H184      0.9067   -1.7170    5.8465   H         1 RES1   0.0000
   309 H185      2.7387    0.2805    4.4363   H         1 RES1   0.0000
   310 H186      3.0622   -0.5819    5.9300   H         1 RES1   0.0000
   311 H187      1.2650    0.5843    7.0726   H         1 RES1   0.0000
   312 H188      0.7085    1.3205    5.5624   H         1 RES1   0.0000
   313 H189      2.7819    2.5411    5.3013   H         1 RES1   0.0000
   314 H190      3.4948    1.7411    6.6947   H         1 RES1   0.0000
   315 H191      2.2667    2.9784    8.2414   H         1 RES1   0.0000
   316 H192      0.9252    3.2460    7.1469   H         1 RES1   0.0000
   317 H193      2.3040    4.8011    5.7953   H         1 RES1   0.0000
   318 H194      3.6515    4.5895    6.9042   H         1 RES1   0.0000
   319 H195      2.4778    5.6969    8.6925   H         1 RES1   0.0000
   320 H196      0.9420    5.6006    7.8504   H         1 RES1   0.0000
   321 H197      3.3259    7.2335    6.8685   H         1 RES1   0.0000
   322 H198      1.9514    7.8901    7.7468   H         1 RES1   0.0000
   323 H199      1.7222    7.2032    6.1440   H         1 RES1   0.0000
   324 H200     -0.9298   -0.3406    5.6510   H         1 RES1   0.0000
   325 H201     -1.1564   -2.0050    5.1182   H         1 RES1   0.0000
   326 H202     -3.0927   -1.3997    4.2600   H         1 RES1   0.0000
   327 H203     -2.2637   -0.4898    3.0149   H         1 RES1   0.0000
   328 H204     -2.4386    1.5516    4.2725   H         1 RES1   0.0000
   329 H205     -2.8668    0.7208    5.7506   H         1 RES1   0.0000
   330 H206     -5.0755    0.2607    5.0488   H         1 RES1   0.0000
   331 H207     -4.7112    0.4873    3.3504   H         1 RES1   0.0000
   332 H208     -4.1514    2.9390    3.9707   H         1 RES1   0.0000
   333 H209     -4.9121    2.6205    5.5199   H         1 RES1   0.0000
   334 H210     -7.0737    2.2753    4.4868   H         1 RES1   0.0000
   335 H211     -6.3587    2.2219    2.8803   H         1 RES1   0.0000
   336 H212     -6.5066    4.6386    4.7380   H         1 RES1   0.0000
   337 H213     -7.4565    4.3712    3.2847   H         1 RES1   0.0000
   338 H214     -4.4338    4.8312    3.3434   H         1 RES1   0.0000
   339 H215     -5.6537    5.9986    2.8995   H         1 RES1   0.0000
   340 H216     -5.3944    4.5761    1.8864   H         1 RES1   0.0000
@<TRIPOS>BOND
     1     1    20    1
     2     1    22    1
     3     1    25    1
     4     1   133    1
     5     1   135    1
     6     1   138    1
     7     1   246    1
     8     1   248    1
     9     1   251    1
    10     2     3    1
    11     2    43    1
    12     2    44    1
    13     2    45    1
    14     3     4    1
    15     3    46    1
    16     3    47    1
    17     4     5    1
    18     4    48    1
    19     4    49    1
    20     5     6    1
    21     5    50    1
    22     5    51    1
    23     6     7    1
    24     6    52    1
    25     6    53    1
    26     7     8    1
    27     7    54    1
    28     7    55    1
    29     8     9    1
    30     8    56    1
    31     8    57    1
    32     9    10    1
    33     9    58    1
    34     9    59    1
    35    10    11    1
    36    10    19    1
    37    11    12    1
    38    11    60    1
    39    11    61    1
    40    12    13    1
    41    12    62    1
    42    12    63    1
    43    13    14    1
    44    13    64    1
    45    13    65    1
    46    14    15    1
    47    14    66    1
    48    14    67    1
    49    15    16    1
    50    15    68    1
    51    15    69    1
    52    16    17    1
    53    16    70    1
    54    16    71    1
    55    17    18    1
    56    17    72    1
    57    17    73    1
    58    18    74    1
    59    18    75    1
    60    18    76    1
    61    19    20    2
    62    19    21    1
    63    21    22    1
    64    21    77    1
    65    21    78    1
    66    22    23    1
    67    23    24    1
    68    23    79    1
    69    23    80    1
    70    24    25    2
    71    24    26    1
    72    26    27    1
    73    26    35    1
    74    27    28    1
    75    27    81    1
    76    27    82    1
    77    28    29    1
    78    28    83    1
    79    28    84    1
    80    29    30    1
    81    29    85    1
    82    29    86    1
    83    30    31    1
    84    30    87    1
    85    30    88    1
    86    31    32    1
    87    31    89    1
    88    31    90    1
    89    32    33    1
    90    32    91    1
    91    32    92    1
    92    33    34    1
    93    33    93    1
    94    33    94    1
    95    34    95    1
    96    34    96    1
    97    34    97    1
    98    35    36    1
    99    35    98    1
   100    35    99    1
   101    36    37    1
   102    36   100    1
   103    36   101    1
   104    37    38    1
   105    37   102    1
   106    37   103    1
   107    38    39    1
   108    38   104    1
   109    38   105    1
   110    39    40    1
   111    39   106    1
   112    39   107    1
   113    40    41    1
   114    40   108    1
   115    40   109    1
   116    41    42    1
   117    41   110    1
   118    41   111    1
   119    42   112    1
   120    42   113    1
   121    42   114    1
   122   115   116    1
   123   115   156    1
   124   115   157    1
   125   115   158    1
   126   116   117    1
   127   116   159    1
   128   116   160    1
   129   117   118    1
   130   117   161    1
   131   117   162    1
   132   118   119    1
   133   118   163    1
   134   118   164    1
   135   119   120    1
   136   119   165    1
   137   119   166    1
   138   120   121    1
   139   120   167    1
   140   120   168    1
   141   121   122    1
   142   121   169    1
   143   121   170    1
   144   122   123    1
   145   122   171    1
   146   122   172    1
   147   123   124    1
   148   123   132    1
   149   124   125    1
   150   124   173    1
   151   124   174    1
   152   125   126    1
   153   125   175    1
   154   125   176    1
   155   126   127    1
   156   126   177    1
   157   126   178    1
   158   127   128    1
   159   127   179    1
   160   127   180    1
   161   128   129    1
   162   128   181    1
   163   128   182    1
   164   129   130    1
   165   129   183    1
   166   129   184    1
   167   130   131    1
   168   130   185    1
   169   130   186    1
   170   131   187    1
   171   131   188    1
   172   131   189    1
   173   132   133    2
   174   132   134    1
   175   134   135    1
   176   134   190    1
   177   134   191    1
   178   135   136    1
   179   136   137    1
   180   136   192    1
   181   136   193    1
   182   137   138    2
   183   137   139    1
   184   139   140    1
   185   139   148    1
   186   140   141    1
   187   140   194    1
   188   140   195    1
   189   141   142    1
   190   141   196    1
   191   141   197    1
   192   142   143    1
   193   142   198    1
   194   142   199    1
   195   143   144    1
   196   143   200    1
   197   143   201    1
   198   144   145    1
   199   144   202    1
   200   144   203    1
   201   145   146    1
   202   145   204    1
   203   145   205    1
   204   146   147    1
   205   146   206    1
   206   146   207    1
   207   147   208    1
   208   147   209    1
   209   147   210    1
   210   148   149    1
   211   148   211    1
   212   148   212    1
   213   149   150    1
   214   149   213    1
   215   149   214    1
   216   150   151    1
   217   150   215    1
   218   150   216    1
   219   151   152    1
   220   151   217    1
   221   151   218    1
   222   152   153    1
   223   152   219    1
   224   152   220    1
   225   153   154    1
   226   153   221    1
   227   153   222    1
   228   154   155    1
   229   154   223    1
   230   154   224    1
   231   155   225    1
   232   155   226    1
   233   155   227    1
   234   228   229    1
   235   228   269    1
   236   228   270    1
   237   228   271    1
   238   229   230    1
   239   229   272    1
   240   229   273    1
   241   230   231    1
   242   230   274    1
   243   230   275    1
   244   231   232    1
   245   231   276    1
   246   231   277    1
   247   232   233    1
   248   232   278    1
   249   232   279    1
   250   233   234    1
   251   233   280    1
   252   233   281    1
   253   234   235    1
   254   234   282    1
   255   234   283    1
   256   235   236    1
   257   235   284    1
   258   235   285    1
   259   236   237    1
   260   236   245    1
   261   237   238    1
   262   237   286    1
   263   237   287    1
   264   238   239    1
   265   238   288    1
   266   238   289    1
   267   239   240    1
   268   239   290    1
   269   239   291    1
   270   240   241    1
   271   240   292    1
   272   240   293    1
   273   241   242    1
   274   241   294    1
   275   241   295    1
   276   242   243    1
   277   242   296    1
   278   242   297    1
   279   243   244    1
   280   243   298    1
   281   243   299    1
   282   244   300    1
   283   244   301    1
   284   244   302    1
   285   245   246    2
   286   245   247    1
   287   247   248    1
   288   247   303    1
   289   247   304    1
   290   248   249    1
   291   249   250    1
   292   249   305    1
   293   249   306    1
   294   250   251    2
   295   250   252    1
   296   252   253    1
   297   252   261    1
   298   253   254    1
   299   253   307    1
   300   253   308    1
   301   254   255    1
   302   254   309    1
   303   254   310    1
   304   255   256    1
   305   255   311    1
   306   255   312    1
   307   256   257    1
   308   256   313    1
   309   256   314    1
   310   257   258    1
   311   257   315    1
   312   257   316    1
   313   258   259    1
   314   258   317    1
   315   258   318    1
   316   259   260    1
   317   259   319    1
   318   259   320    1
   319   260   321    1
   320   260   322    1
   321   260   323    1
   322   261   262    1
   323   261   324    1
   324   261   325    1
   325   262   263    1
   326   262   326    1
   327   262   327    1
   328   263   264    1
   329   263   328    1
   330   263   329    1
   331   264   265    1
   332   264   330    1
   333   264   331    1
   334   265   266    1
   335   265   332    1
   336   265   333    1
   337   266   267    1
   338   266   334    1
   339   266   335    1
   340   267   268    1
   341   267   336    1
   342   267   337    1
   343   268   338    1
   344   268   339    1
   345   268   340    1
@<TRIPOS>SUBSTRUCTURE
     1 RES1      340 GROUP             0 ****  ****    0  
