@<TRIPOS>MOLECULE
cn9_YICLED_0_nunpairedes_0_charge_3 Charge: 3 Unpaired_Electrons: 2 XTB_Unpaired_Electrons: 0 XTB_Charge: 3
   352   363     1     0     0
SMALL
NoCharges
****
Generated from Architector

@<TRIPOS>ATOM
     1 Pr1       0.0051   -0.4142    0.0115   Pr        1 RES1   0.0000
     2 C1       -1.7261    5.8842    3.1635   C.3       1 RES1   0.0000
     3 C2       -1.7002    4.5409    2.4419   C.3       1 RES1   0.0000
     4 C3       -0.9481    3.4510    3.2131   C.3       1 RES1   0.0000
     5 C4       -1.7063    2.9685    4.4510   C.3       1 RES1   0.0000
     6 C5       -0.9040    1.9534    5.2625   C.3       1 RES1   0.0000
     7 C6       -1.5100    1.6401    6.6341   C.3       1 RES1   0.0000
     8 C7       -1.3284    2.7451    7.6887   C.3       1 RES1   0.0000
     9 C8       -0.2671    2.4914    8.7688   C.3       1 RES1   0.0000
    10 C9        1.2149    2.5717    8.3681   C.3       1 RES1   0.0000
    11 C10       1.5338    3.8434    7.5958   C.3       1 RES1   0.0000
    12 C11       2.0959    2.5097    9.6124   C.3       1 RES1   0.0000
    13 S1        1.5070    1.0321    7.3867   S.3       1 RES1   0.0000
    14 C12       3.2228    1.1574    6.7589   C.3       1 RES1   0.0000
    15 C13       3.4288    0.2016    5.5826   C.3       1 RES1   0.0000
    16 C14       2.3976    0.4964    4.4779   C.3       1 RES1   0.0000
    17 N1        1.7166   -0.7583    4.1901   N.am      1 RES1   0.0000
    18 C15       0.9648   -0.9116    3.1139   C.2       1 RES1   0.0000
    19 O1        0.7575    0.0120    2.2935   O.2       1 RES1   0.0000
    20 C16       0.3547   -2.2980    2.8692   C.3       1 RES1   0.0000
    21 O2       -0.1681   -2.3668    1.5379   O.3       1 RES1   0.0000
    22 C17      -1.5164   -2.8168    1.4869   C.3       1 RES1   0.0000
    23 C18      -2.4020   -1.6374    1.9147   C.2       1 RES1   0.0000
    24 O3       -2.0354   -0.5037    1.5390   O.2       1 RES1   0.0000
    25 N2       -3.4713   -1.8573    2.6502   N.am      1 RES1   0.0000
    26 C19      -4.4100   -0.8078    3.0401   C.3       1 RES1   0.0000
    27 C20      -5.6564   -1.5612    3.5321   C.3       1 RES1   0.0000
    28 C21      -6.6408   -1.8477    2.4039   C.3       1 RES1   0.0000
    29 C22      -5.0209   -2.8186    4.1541   C.3       1 RES1   0.0000
    30 C23      -5.9067   -4.0350    4.3782   C.3       1 RES1   0.0000
    31 S2       -4.8761   -5.3198    5.2040   S.3       1 RES1   0.0000
    32 C24      -4.9996   -6.8610    4.1552   C.3       1 RES1   0.0000
    33 C25      -4.2820   -7.9037    5.0097   C.3       1 RES1   0.0000
    34 C26      -6.4602   -7.2418    3.9710   C.3       1 RES1   0.0000
    35 C27      -4.2717   -6.6099    2.8306   C.3       1 RES1   0.0000
    36 C28      -4.1671   -7.8304    1.9147   C.3       1 RES1   0.0000
    37 C29      -3.3108   -7.5678    0.6742   C.3       1 RES1   0.0000
    38 C30      -3.9449   -6.6155   -0.3375   C.3       1 RES1   0.0000
    39 C31      -3.1301   -6.5391   -1.6278   C.3       1 RES1   0.0000
    40 C32      -3.7138   -5.5733   -2.6615   C.3       1 RES1   0.0000
    41 C33      -3.6143   -4.0916   -2.2881   C.3       1 RES1   0.0000
    42 C34      -2.1761   -3.5835   -2.2674   C.3       1 RES1   0.0000
    43 C35      -3.8632   -3.1398    3.2026   C.3       1 RES1   0.0000
    44 C36       1.8967   -1.6690    5.3067   C.3       1 RES1   0.0000
    45 C37       3.2629   -1.3054    5.8998   C.3       1 RES1   0.0000
    46 C38       3.3540   -1.6870    7.3722   C.3       1 RES1   0.0000
    47 H1       -2.2277    6.6271    2.5494   H         1 RES1   0.0000
    48 H2       -0.7164    6.2340    3.3636   H         1 RES1   0.0000
    49 H3       -2.2601    5.8180    4.1066   H         1 RES1   0.0000
    50 H4       -1.2198    4.6838    1.4701   H         1 RES1   0.0000
    51 H5       -2.7258    4.2111    2.2600   H         1 RES1   0.0000
    52 H6        0.0231    3.8490    3.5195   H         1 RES1   0.0000
    53 H7       -0.7560    2.5908    2.5565   H         1 RES1   0.0000
    54 H8       -2.6517    2.5187    4.1398   H         1 RES1   0.0000
    55 H9       -1.9404    3.8220    5.0856   H         1 RES1   0.0000
    56 H10       0.1002    2.3487    5.4100   H         1 RES1   0.0000
    57 H11      -0.8198    1.0288    4.6796   H         1 RES1   0.0000
    58 H12      -1.0790    0.7145    7.0148   H         1 RES1   0.0000
    59 H13      -2.5759    1.4585    6.4948   H         1 RES1   0.0000
    60 H14      -2.2690    2.8537    8.2290   H         1 RES1   0.0000
    61 H15      -1.1387    3.7002    7.1993   H         1 RES1   0.0000
    62 H16      -0.4531    1.5150    9.2240   H         1 RES1   0.0000
    63 H17      -0.4157    3.2395    9.5503   H         1 RES1   0.0000
    64 H18       1.1290    4.6866    8.1517   H         1 RES1   0.0000
    65 H19       1.0972    3.8552    6.6010   H         1 RES1   0.0000
    66 H20       2.6081    3.9969    7.5079   H         1 RES1   0.0000
    67 H21       1.8746    3.3541   10.2622   H         1 RES1   0.0000
    68 H22       3.1511    2.5607    9.3451   H         1 RES1   0.0000
    69 H23       1.9257    1.5932   10.1729   H         1 RES1   0.0000
    70 H24       3.9268    0.9479    7.5628   H         1 RES1   0.0000
    71 H25       3.3739    2.1797    6.4100   H         1 RES1   0.0000
    72 H26       4.4454    0.3792    5.2192   H         1 RES1   0.0000
    73 H27       2.8359    0.8887    3.5617   H         1 RES1   0.0000
    74 H28       1.6555    1.2102    4.8479   H         1 RES1   0.0000
    75 H29      -0.4303   -2.4881    3.6161   H         1 RES1   0.0000
    76 H30       1.1242   -3.0765    2.9627   H         1 RES1   0.0000
    77 H31      -1.6474   -3.7201    2.0911   H         1 RES1   0.0000
    78 H32      -1.7194   -3.0606    0.4303   H         1 RES1   0.0000
    79 H33      -4.5894   -0.1515    2.1858   H         1 RES1   0.0000
    80 H34      -3.9678   -0.2084    3.8415   H         1 RES1   0.0000
    81 H35      -6.1741   -0.9809    4.2973   H         1 RES1   0.0000
    82 H36      -7.1389   -0.9249    2.1162   H         1 RES1   0.0000
    83 H37      -7.4131   -2.5308    2.7423   H         1 RES1   0.0000
    84 H38      -6.1453   -2.2828    1.5371   H         1 RES1   0.0000
    85 H39      -4.6012   -2.5484    5.1282   H         1 RES1   0.0000
    86 H40      -6.2907   -4.4496    3.4503   H         1 RES1   0.0000
    87 H41      -6.7384   -3.8015    5.0429   H         1 RES1   0.0000
    88 H42      -4.7013   -7.9181    6.0133   H         1 RES1   0.0000
    89 H43      -3.2200   -7.6792    5.0877   H         1 RES1   0.0000
    90 H44      -4.3989   -8.8959    4.5824   H         1 RES1   0.0000
    91 H45      -6.9884   -7.1762    4.9194   H         1 RES1   0.0000
    92 H46      -6.5299   -8.2690    3.6195   H         1 RES1   0.0000
    93 H47      -6.9643   -6.6027    3.2482   H         1 RES1   0.0000
    94 H48      -3.2610   -6.2603    3.0600   H         1 RES1   0.0000
    95 H49      -4.7918   -5.8191    2.2848   H         1 RES1   0.0000
    96 H50      -5.1638   -8.1390    1.6033   H         1 RES1   0.0000
    97 H51      -3.7138   -8.6534    2.4643   H         1 RES1   0.0000
    98 H52      -3.1316   -8.5229    0.1785   H         1 RES1   0.0000
    99 H53      -2.3405   -7.1729    0.9841   H         1 RES1   0.0000
   100 H54      -4.0321   -5.6180    0.0988   H         1 RES1   0.0000
   101 H55      -4.9499   -6.9641   -0.5777   H         1 RES1   0.0000
   102 H56      -3.0970   -7.5344   -2.0739   H         1 RES1   0.0000
   103 H57      -2.1021   -6.2593   -1.3952   H         1 RES1   0.0000
   104 H58      -4.7650   -5.8244   -2.8151   H         1 RES1   0.0000
   105 H59      -3.2010   -5.7253   -3.6135   H         1 RES1   0.0000
   106 H60      -4.0906   -3.9255   -1.3201   H         1 RES1   0.0000
   107 H61      -4.1769   -3.5183   -3.0271   H         1 RES1   0.0000
   108 H62      -1.5773   -4.1133   -1.5299   H         1 RES1   0.0000
   109 H63      -2.1273   -2.5120   -2.0552   H         1 RES1   0.0000
   110 H64      -1.7252   -3.7690   -3.2381   H         1 RES1   0.0000
   111 H65      -4.1939   -3.8150    2.4092   H         1 RES1   0.0000
   112 H66      -3.0422   -3.6098    3.7449   H         1 RES1   0.0000
   113 H67       1.8547   -2.7167    5.0057   H         1 RES1   0.0000
   114 H68       1.1260   -1.4799    6.0623   H         1 RES1   0.0000
   115 H69       4.0364   -1.8564    5.3571   H         1 RES1   0.0000
   116 H70       2.5846   -1.1809    7.9484   H         1 RES1   0.0000
   117 H71       4.3263   -1.4268    7.7828   H         1 RES1   0.0000
   118 H72       3.2189   -2.7580    7.4854   H         1 RES1   0.0000
   119 C39       7.1218    6.6000   -4.9923   C.3       1 RES1   0.0000
   120 C40       8.0780    6.2425   -3.8596   C.3       1 RES1   0.0000
   121 C41       7.3461    5.6676   -2.6462   C.3       1 RES1   0.0000
   122 C42       8.3184    5.1728   -1.5780   C.3       1 RES1   0.0000
   123 C43       7.6668    4.5537   -0.3397   C.3       1 RES1   0.0000
   124 C44       6.7642    3.3416   -0.5995   C.3       1 RES1   0.0000
   125 C45       7.3462    2.3704   -1.6250   C.3       1 RES1   0.0000
   126 C46       6.5555    1.0608   -1.7414   C.3       1 RES1   0.0000
   127 C47       6.3572    0.5138   -3.1580   C.3       1 RES1   0.0000
   128 C48       7.5281    0.7253   -4.1040   C.3       1 RES1   0.0000
   129 C49       6.0662   -0.9881   -3.0979   C.3       1 RES1   0.0000
   130 S3        4.8418    1.2843   -3.9906   S.3       1 RES1   0.0000
   131 C50       4.2874    2.8251   -3.1260   C.3       1 RES1   0.0000
   132 C51       3.1490    3.4097   -3.9645   C.3       1 RES1   0.0000
   133 C52       1.8674    2.5812   -3.8507   C.3       1 RES1   0.0000
   134 N3        1.1593    3.1489   -2.7109   N.am      1 RES1   0.0000
   135 C53       0.3550    2.4065   -1.9652   C.2       1 RES1   0.0000
   136 O4        0.1087    1.2132   -2.1945   O.2       1 RES1   0.0000
   137 C54      -0.2813    3.0500   -0.7221   C.3       1 RES1   0.0000
   138 O5       -0.9610    2.0467    0.0273   O.3       1 RES1   0.0000
   139 C55      -2.3773    1.9971   -0.1483   C.3       1 RES1   0.0000
   140 C56      -2.8416    0.6856   -0.8034   C.2       1 RES1   0.0000
   141 O6       -2.0365   -0.2315   -1.0616   O.2       1 RES1   0.0000
   142 N4       -4.1365    0.5629   -1.0270   N.am      1 RES1   0.0000
   143 C57      -4.7119   -0.6977   -1.5007   C.3       1 RES1   0.0000
   144 C58      -6.2373   -0.5143   -1.4448   C.3       1 RES1   0.0000
   145 C59      -6.8276   -0.1603   -2.8039   C.3       1 RES1   0.0000
   146 C60      -6.3779    0.5914   -0.3838   C.3       1 RES1   0.0000
   147 C61      -7.7128    1.3180   -0.2851   C.3       1 RES1   0.0000
   148 S4       -7.7730    2.1393    1.3656   S.3       1 RES1   0.0000
   149 C62      -7.9589    3.9970    1.1612   C.3       1 RES1   0.0000
   150 C63      -7.5705    4.4554   -0.2371   C.3       1 RES1   0.0000
   151 C64      -9.4062    4.3756    1.4494   C.3       1 RES1   0.0000
   152 C65      -6.9786    4.5924    2.1865   C.3       1 RES1   0.0000
   153 C66      -7.4140    4.4398    3.6436   C.3       1 RES1   0.0000
   154 C67      -6.3253    4.8961    4.6159   C.3       1 RES1   0.0000
   155 C68      -5.2248    3.8485    4.8410   C.3       1 RES1   0.0000
   156 C69      -5.1291    3.3881    6.2993   C.3       1 RES1   0.0000
   157 C70      -6.3454    2.5979    6.7884   C.3       1 RES1   0.0000
   158 C71      -6.4475    1.1697    6.2487   C.3       1 RES1   0.0000
   159 C72      -5.3737    0.2335    6.7966   C.3       1 RES1   0.0000
   160 C73      -5.1820    1.5029   -0.6692   C.3       1 RES1   0.0000
   161 C74       1.6195    4.4952   -2.4254   C.3       1 RES1   0.0000
   162 C75       2.6346    4.8030   -3.5376   C.3       1 RES1   0.0000
   163 C76       3.6839    5.8230   -3.1241   C.3       1 RES1   0.0000
   164 H73       7.6694    7.0350   -5.8230   H         1 RES1   0.0000
   165 H74       6.3821    7.3255   -4.6603   H         1 RES1   0.0000
   166 H75       6.6042    5.7128   -5.3571   H         1 RES1   0.0000
   167 H76       8.6355    7.1313   -3.5619   H         1 RES1   0.0000
   168 H77       8.8017    5.5095   -4.2237   H         1 RES1   0.0000
   169 H78       6.7176    4.8433   -2.9928   H         1 RES1   0.0000
   170 H79       6.6878    6.4299   -2.2232   H         1 RES1   0.0000
   171 H80       8.9229    6.0177   -1.2465   H         1 RES1   0.0000
   172 H81       9.0032    4.4508   -2.0237   H         1 RES1   0.0000
   173 H82       7.0774    5.3146    0.1755   H         1 RES1   0.0000
   174 H83       8.4701    4.2528    0.3343   H         1 RES1   0.0000
   175 H84       5.7841    3.6869   -0.9381   H         1 RES1   0.0000
   176 H85       6.6136    2.8206    0.3504   H         1 RES1   0.0000
   177 H86       8.3755    2.1422   -1.3534   H         1 RES1   0.0000
   178 H87       7.3718    2.8668   -2.5907   H         1 RES1   0.0000
   179 H88       5.5670    1.1891   -1.2916   H         1 RES1   0.0000
   180 H89       7.0651    0.2815   -1.1715   H         1 RES1   0.0000
   181 H90       8.4295    0.2817   -3.6886   H         1 RES1   0.0000
   182 H91       7.7197    1.7767   -4.2993   H         1 RES1   0.0000
   183 H92       7.3112    0.2446   -5.0554   H         1 RES1   0.0000
   184 H93       6.9793   -1.5132   -2.8220   H         1 RES1   0.0000
   185 H94       5.7597   -1.3570   -4.0755   H         1 RES1   0.0000
   186 H95       5.2981   -1.2406   -2.3692   H         1 RES1   0.0000
   187 H96       5.1262    3.5146   -3.0892   H         1 RES1   0.0000
   188 H97       3.9448    2.5734   -2.1215   H         1 RES1   0.0000
   189 H98       3.5033    3.4389   -4.9969   H         1 RES1   0.0000
   190 H99       2.0387    1.5260   -3.6524   H         1 RES1   0.0000
   191 H100      1.2510    2.6718   -4.7480   H         1 RES1   0.0000
   192 H101     -0.9595    3.8526   -1.0372   H         1 RES1   0.0000
   193 H102      0.4817    3.4847   -0.0589   H         1 RES1   0.0000
   194 H103     -2.7363    2.8569   -0.7273   H         1 RES1   0.0000
   195 H104     -2.8107    2.0323    0.8630   H         1 RES1   0.0000
   196 H105     -4.3702   -1.4970   -0.8374   H         1 RES1   0.0000
   197 H106     -4.3462   -0.9241   -2.5035   H         1 RES1   0.0000
   198 H107     -6.7140   -1.4323   -1.0916   H         1 RES1   0.0000
   199 H108     -6.3689    0.7308   -3.2233   H         1 RES1   0.0000
   200 H109     -7.8968    0.0032   -2.7120   H         1 RES1   0.0000
   201 H110     -6.6756   -0.9843   -3.4968   H         1 RES1   0.0000
   202 H111     -6.2014    0.1253    0.5893   H         1 RES1   0.0000
   203 H112     -8.5362    0.6017   -0.3020   H         1 RES1   0.0000
   204 H113     -7.8487    2.0543   -1.0706   H         1 RES1   0.0000
   205 H114     -8.2593    4.0794   -0.9914   H         1 RES1   0.0000
   206 H115     -6.5554    4.1526   -0.4909   H         1 RES1   0.0000
   207 H116     -7.6228    5.5429   -0.2724   H         1 RES1   0.0000
   208 H117    -10.0517    4.1001    0.6173   H         1 RES1   0.0000
   209 H118     -9.4802    5.4525    1.5959   H         1 RES1   0.0000
   210 H119     -9.7734    3.8809    2.3447   H         1 RES1   0.0000
   211 H120     -6.8545    5.6568    1.9688   H         1 RES1   0.0000
   212 H121     -6.0052    4.1108    2.0498   H         1 RES1   0.0000
   213 H122     -7.6684    3.3955    3.8375   H         1 RES1   0.0000
   214 H123     -8.3052    5.0432    3.8101   H         1 RES1   0.0000
   215 H124     -6.7868    5.1323    5.5741   H         1 RES1   0.0000
   216 H125     -5.8878    5.8223    4.2390   H         1 RES1   0.0000
   217 H126     -4.2606    4.2711    4.5587   H         1 RES1   0.0000
   218 H127     -5.4006    2.9807    4.1996   H         1 RES1   0.0000
   219 H128     -5.0074    4.2694    6.9334   H         1 RES1   0.0000
   220 H129     -4.2290    2.7840    6.4260   H         1 RES1   0.0000
   221 H130     -7.2548    3.1359    6.5163   H         1 RES1   0.0000
   222 H131     -6.3134    2.5513    7.8784   H         1 RES1   0.0000
   223 H132     -6.4106    1.1870    5.1567   H         1 RES1   0.0000
   224 H133     -7.4224    0.7759    6.5371   H         1 RES1   0.0000
   225 H134     -4.4099    0.4137    6.3256   H         1 RES1   0.0000
   226 H135     -5.6444   -0.8070    6.6310   H         1 RES1   0.0000
   227 H136     -5.2583    0.3761    7.8674   H         1 RES1   0.0000
   228 H137     -4.9156    2.0938    0.2057   H         1 RES1   0.0000
   229 H138     -5.3931    2.1748   -1.5070   H         1 RES1   0.0000
   230 H139      2.1066    4.5243   -1.4436   H         1 RES1   0.0000
   231 H140      0.7936    5.2107   -2.4253   H         1 RES1   0.0000
   232 H141      2.0919    5.2119   -4.3947   H         1 RES1   0.0000
   233 H142      4.1505    5.5719   -2.1727   H         1 RES1   0.0000
   234 H143      3.2294    6.8078   -3.0346   H         1 RES1   0.0000
   235 H144      4.4566    5.8926   -3.8842   H         1 RES1   0.0000
   236 C77       0.6658   -7.1666    0.6773   C.3       1 RES1   0.0000
   237 C78       0.4601   -5.8121    0.0064   C.3       1 RES1   0.0000
   238 C79       1.6321   -4.8470    0.2049   C.3       1 RES1   0.0000
   239 C80       2.8911   -5.3027   -0.5361   C.3       1 RES1   0.0000
   240 C81       4.0783   -4.3660   -0.3128   C.3       1 RES1   0.0000
   241 C82       5.4190   -4.9430   -0.7803   C.3       1 RES1   0.0000
   242 C83       5.9246   -6.1253    0.0655   C.3       1 RES1   0.0000
   243 C84       7.2480   -5.9097    0.8133   C.3       1 RES1   0.0000
   244 C85       7.2475   -5.0343    2.0816   C.3       1 RES1   0.0000
   245 C86       6.0109   -5.2640    2.9405   C.3       1 RES1   0.0000
   246 C87       8.5090   -5.3385    2.8882   C.3       1 RES1   0.0000
   247 S5        7.3554   -3.2510    1.5377   S.3       1 RES1   0.0000
   248 C88       7.2345   -2.3225    3.1174   C.3       1 RES1   0.0000
   249 C89       6.0560   -1.3336    3.2358   C.3       1 RES1   0.0000
   250 C90       4.8501   -1.7116    2.3647   C.3       1 RES1   0.0000
   251 N5        4.3974   -0.4953    1.7171   N.am      1 RES1   0.0000
   252 C91       3.2906   -0.4473    1.0019   C.2       1 RES1   0.0000
   253 O7        2.4726   -1.3775    0.9052   O.2       1 RES1   0.0000
   254 C92       2.9959    0.8331    0.2076   C.3       1 RES1   0.0000
   255 O8        2.1236    0.4923   -0.8580   O.3       1 RES1   0.0000
   256 C93       2.7124   -0.3931   -1.8333   C.3       1 RES1   0.0000
   257 C94       1.5952   -1.2221   -2.4781   C.2       1 RES1   0.0000
   258 O9        0.7223   -1.7018   -1.7148   O.2       1 RES1   0.0000
   259 N6        1.6364   -1.4875   -3.7660   N.am      1 RES1   0.0000
   260 C95       0.7323   -2.4603   -4.3636   C.3       1 RES1   0.0000
   261 C96       0.6184   -2.0672   -5.8404   C.3       1 RES1   0.0000
   262 C97      -0.6043   -1.1793   -6.0520   C.3       1 RES1   0.0000
   263 C98       1.9806   -1.3875   -6.1473   C.3       1 RES1   0.0000
   264 C99       1.8705   -0.2146   -7.1215   C.3       1 RES1   0.0000
   265 S6        3.4589    0.7028   -7.2588   S.3       1 RES1   0.0000
   266 C100      3.0498    2.1870   -8.3380   C.3       1 RES1   0.0000
   267 C101      4.3635    2.9610   -8.3809   C.3       1 RES1   0.0000
   268 C102      2.6785    1.7351   -9.7410   C.3       1 RES1   0.0000
   269 C103      1.9551    2.9990   -7.6449   C.3       1 RES1   0.0000
   270 C104      1.4848    4.2526   -8.3873   C.3       1 RES1   0.0000
   271 C105      0.6748    5.1778   -7.4747   C.3       1 RES1   0.0000
   272 C106     -0.6427    4.5650   -6.9981   C.3       1 RES1   0.0000
   273 C107     -1.3124    5.3875   -5.8960   C.3       1 RES1   0.0000
   274 C108     -2.7794    5.0071   -5.6707   C.3       1 RES1   0.0000
   275 C109     -3.0125    3.5871   -5.1486   C.3       1 RES1   0.0000
   276 C110     -2.6389    3.4140   -3.6797   C.3       1 RES1   0.0000
   277 C111      2.5532   -0.9830   -4.7731   C.3       1 RES1   0.0000
   278 C112      5.3786    0.5631    1.8074   C.3       1 RES1   0.0000
   279 C113      6.3543    0.1620    2.9184   C.3       1 RES1   0.0000
   280 C114      7.7745    0.5004    2.4829   C.3       1 RES1   0.0000
   281 H145     -0.2133   -7.7907    0.5414   H         1 RES1   0.0000
   282 H146      0.8419   -7.0479    1.7445   H         1 RES1   0.0000
   283 H147      1.5090   -7.6967    0.2463   H         1 RES1   0.0000
   284 H148     -0.4476   -5.3552    0.4126   H         1 RES1   0.0000
   285 H149      0.3059   -5.9631   -1.0634   H         1 RES1   0.0000
   286 H150      1.8549   -4.7787    1.2739   H         1 RES1   0.0000
   287 H151      1.3479   -3.8401   -0.1380   H         1 RES1   0.0000
   288 H152      2.6762   -5.3676   -1.6048   H         1 RES1   0.0000
   289 H153      3.1616   -6.3009   -0.1935   H         1 RES1   0.0000
   290 H154      4.1413   -4.1347    0.7511   H         1 RES1   0.0000
   291 H155      3.8852   -3.4253   -0.8404   H         1 RES1   0.0000
   292 H156      6.1684   -4.1509   -0.7651   H         1 RES1   0.0000
   293 H157      5.3078   -5.2620   -1.8171   H         1 RES1   0.0000
   294 H158      6.0903   -6.9757   -0.5958   H         1 RES1   0.0000
   295 H159      5.1573   -6.4300    0.7755   H         1 RES1   0.0000
   296 H160      8.0020   -5.5355    0.1167   H         1 RES1   0.0000
   297 H161      7.5836   -6.8987    1.1354   H         1 RES1   0.0000
   298 H162      5.8875   -6.3326    3.1009   H         1 RES1   0.0000
   299 H163      5.1116   -4.8782    2.4670   H         1 RES1   0.0000
   300 H164      6.1120   -4.8027    3.9221   H         1 RES1   0.0000
   301 H165      8.4894   -6.3746    3.2226   H         1 RES1   0.0000
   302 H166      8.5832   -4.7063    3.7721   H         1 RES1   0.0000
   303 H167      9.4021   -5.1893    2.2846   H         1 RES1   0.0000
   304 H168      8.1849   -1.8155    3.2715   H         1 RES1   0.0000
   305 H169      7.1253   -3.0794    3.8875   H         1 RES1   0.0000
   306 H170      5.7760   -1.3766    4.2901   H         1 RES1   0.0000
   307 H171      4.0225   -2.1566    2.9228   H         1 RES1   0.0000
   308 H172      5.1739   -2.4223    1.5902   H         1 RES1   0.0000
   309 H173      3.9080    1.3090   -0.1688   H         1 RES1   0.0000
   310 H174      2.4375    1.5579    0.8227   H         1 RES1   0.0000
   311 H175      3.3476   -1.1359   -1.3276   H         1 RES1   0.0000
   312 H176      3.3207    0.1797   -2.5517   H         1 RES1   0.0000
   313 H177     -0.2206   -2.4304   -3.8365   H         1 RES1   0.0000
   314 H178      1.1699   -3.4569   -4.2411   H         1 RES1   0.0000
   315 H179      0.5070   -2.9634   -6.4573   H         1 RES1   0.0000
   316 H180     -1.5022   -1.7319   -5.7907   H         1 RES1   0.0000
   317 H181     -0.6889   -0.8900   -7.0937   H         1 RES1   0.0000
   318 H182     -0.5523   -0.2918   -5.4254   H         1 RES1   0.0000
   319 H183      2.6525   -2.1198   -6.6005   H         1 RES1   0.0000
   320 H184      1.1230    0.5010   -6.7850   H         1 RES1   0.0000
   321 H185      1.6053   -0.5802   -8.1155   H         1 RES1   0.0000
   322 H186      5.1338    2.3674   -8.8650   H         1 RES1   0.0000
   323 H187      4.7007    3.2143   -7.3785   H         1 RES1   0.0000
   324 H188      4.2424    3.8797   -8.9481   H         1 RES1   0.0000
   325 H189      3.3816    0.9821  -10.0904   H         1 RES1   0.0000
   326 H190      2.7366    2.5848  -10.4192   H         1 RES1   0.0000
   327 H191      1.6747    1.3208   -9.7922   H         1 RES1   0.0000
   328 H192      2.3340    3.2984   -6.6646   H         1 RES1   0.0000
   329 H193      1.0824    2.3637   -7.4912   H         1 RES1   0.0000
   330 H194      0.8803    3.9657   -9.2473   H         1 RES1   0.0000
   331 H195      2.3417    4.8113   -8.7595   H         1 RES1   0.0000
   332 H196      0.4577    6.0983   -8.0178   H         1 RES1   0.0000
   333 H197      1.2884    5.4509   -6.6110   H         1 RES1   0.0000
   334 H198     -0.4628    3.5552   -6.6268   H         1 RES1   0.0000
   335 H199     -1.3219    4.4912   -7.8477   H         1 RES1   0.0000
   336 H200     -1.2742    6.4432   -6.1720   H         1 RES1   0.0000
   337 H201     -0.7469    5.2807   -4.9653   H         1 RES1   0.0000
   338 H202     -3.3050    5.1169   -6.6200   H         1 RES1   0.0000
   339 H203     -3.2269    5.7187   -4.9737   H         1 RES1   0.0000
   340 H204     -2.4498    2.8764   -5.7532   H         1 RES1   0.0000
   341 H205     -4.0689    3.3450   -5.2689   H         1 RES1   0.0000
   342 H206     -1.6165    3.7412   -3.5052   H         1 RES1   0.0000
   343 H207     -2.7184    2.3680   -3.3863   H         1 RES1   0.0000
   344 H208     -3.3039    4.0042   -3.0511   H         1 RES1   0.0000
   345 H209      2.6645    0.0974   -4.7273   H         1 RES1   0.0000
   346 H210      3.5441   -1.4163   -4.6324   H         1 RES1   0.0000
   347 H211      4.9080    1.5270    2.0166   H         1 RES1   0.0000
   348 H212      5.9358    0.6257    0.8679   H         1 RES1   0.0000
   349 H213      6.1328    0.7435    3.8166   H         1 RES1   0.0000
   350 H214      8.0675   -0.1051    1.6316   H         1 RES1   0.0000
   351 H215      8.4871    0.3526    3.2848   H         1 RES1   0.0000
   352 H216      7.8239    1.5504    2.2026   H         1 RES1   0.0000
@<TRIPOS>BOND
     1     1    19    1
     2     1    21    1
     3     1    24    1
     4     1   136    1
     5     1   138    1
     6     1   141    1
     7     1   253    1
     8     1   255    1
     9     1   258    1
    10     2     3    1
    11     2    47    1
    12     2    48    1
    13     2    49    1
    14     3     4    1
    15     3    50    1
    16     3    51    1
    17     4     5    1
    18     4    52    1
    19     4    53    1
    20     5     6    1
    21     5    54    1
    22     5    55    1
    23     6     7    1
    24     6    56    1
    25     6    57    1
    26     7     8    1
    27     7    58    1
    28     7    59    1
    29     8     9    1
    30     8    60    1
    31     8    61    1
    32     9    10    1
    33     9    62    1
    34     9    63    1
    35    10    11    1
    36    10    12    1
    37    10    13    1
    38    11    64    1
    39    11    65    1
    40    11    66    1
    41    12    67    1
    42    12    68    1
    43    12    69    1
    44    13    14    1
    45    14    15    1
    46    14    70    1
    47    14    71    1
    48    15    16    1
    49    15    45    1
    50    15    72    1
    51    16    17    1
    52    16    73    1
    53    16    74    1
    54    17    18    1
    55    17    44    1
    56    18    19    2
    57    18    20    1
    58    20    21    1
    59    20    75    1
    60    20    76    1
    61    21    22    1
    62    22    23    1
    63    22    77    1
    64    22    78    1
    65    23    24    2
    66    23    25    1
    67    25    26    1
    68    25    43    1
    69    26    27    1
    70    26    79    1
    71    26    80    1
    72    27    28    1
    73    27    29    1
    74    27    81    1
    75    28    82    1
    76    28    83    1
    77    28    84    1
    78    29    30    1
    79    29    43    1
    80    29    85    1
    81    30    31    1
    82    30    86    1
    83    30    87    1
    84    31    32    1
    85    32    33    1
    86    32    34    1
    87    32    35    1
    88    33    88    1
    89    33    89    1
    90    33    90    1
    91    34    91    1
    92    34    92    1
    93    34    93    1
    94    35    36    1
    95    35    94    1
    96    35    95    1
    97    36    37    1
    98    36    96    1
    99    36    97    1
   100    37    38    1
   101    37    98    1
   102    37    99    1
   103    38    39    1
   104    38   100    1
   105    38   101    1
   106    39    40    1
   107    39   102    1
   108    39   103    1
   109    40    41    1
   110    40   104    1
   111    40   105    1
   112    41    42    1
   113    41   106    1
   114    41   107    1
   115    42   108    1
   116    42   109    1
   117    42   110    1
   118    43   111    1
   119    43   112    1
   120    44    45    1
   121    44   113    1
   122    44   114    1
   123    45    46    1
   124    45   115    1
   125    46   116    1
   126    46   117    1
   127    46   118    1
   128   119   120    1
   129   119   164    1
   130   119   165    1
   131   119   166    1
   132   120   121    1
   133   120   167    1
   134   120   168    1
   135   121   122    1
   136   121   169    1
   137   121   170    1
   138   122   123    1
   139   122   171    1
   140   122   172    1
   141   123   124    1
   142   123   173    1
   143   123   174    1
   144   124   125    1
   145   124   175    1
   146   124   176    1
   147   125   126    1
   148   125   177    1
   149   125   178    1
   150   126   127    1
   151   126   179    1
   152   126   180    1
   153   127   128    1
   154   127   129    1
   155   127   130    1
   156   128   181    1
   157   128   182    1
   158   128   183    1
   159   129   184    1
   160   129   185    1
   161   129   186    1
   162   130   131    1
   163   131   132    1
   164   131   187    1
   165   131   188    1
   166   132   133    1
   167   132   162    1
   168   132   189    1
   169   133   134    1
   170   133   190    1
   171   133   191    1
   172   134   135    1
   173   134   161    1
   174   135   136    2
   175   135   137    1
   176   137   138    1
   177   137   192    1
   178   137   193    1
   179   138   139    1
   180   139   140    1
   181   139   194    1
   182   139   195    1
   183   140   141    2
   184   140   142    1
   185   142   143    1
   186   142   160    1
   187   143   144    1
   188   143   196    1
   189   143   197    1
   190   144   145    1
   191   144   146    1
   192   144   198    1
   193   145   199    1
   194   145   200    1
   195   145   201    1
   196   146   147    1
   197   146   160    1
   198   146   202    1
   199   147   148    1
   200   147   203    1
   201   147   204    1
   202   148   149    1
   203   149   150    1
   204   149   151    1
   205   149   152    1
   206   150   205    1
   207   150   206    1
   208   150   207    1
   209   151   208    1
   210   151   209    1
   211   151   210    1
   212   152   153    1
   213   152   211    1
   214   152   212    1
   215   153   154    1
   216   153   213    1
   217   153   214    1
   218   154   155    1
   219   154   215    1
   220   154   216    1
   221   155   156    1
   222   155   217    1
   223   155   218    1
   224   156   157    1
   225   156   219    1
   226   156   220    1
   227   157   158    1
   228   157   221    1
   229   157   222    1
   230   158   159    1
   231   158   223    1
   232   158   224    1
   233   159   225    1
   234   159   226    1
   235   159   227    1
   236   160   228    1
   237   160   229    1
   238   161   162    1
   239   161   230    1
   240   161   231    1
   241   162   163    1
   242   162   232    1
   243   163   233    1
   244   163   234    1
   245   163   235    1
   246   236   237    1
   247   236   281    1
   248   236   282    1
   249   236   283    1
   250   237   238    1
   251   237   284    1
   252   237   285    1
   253   238   239    1
   254   238   286    1
   255   238   287    1
   256   239   240    1
   257   239   288    1
   258   239   289    1
   259   240   241    1
   260   240   290    1
   261   240   291    1
   262   241   242    1
   263   241   292    1
   264   241   293    1
   265   242   243    1
   266   242   294    1
   267   242   295    1
   268   243   244    1
   269   243   296    1
   270   243   297    1
   271   244   245    1
   272   244   246    1
   273   244   247    1
   274   245   298    1
   275   245   299    1
   276   245   300    1
   277   246   301    1
   278   246   302    1
   279   246   303    1
   280   247   248    1
   281   248   249    1
   282   248   304    1
   283   248   305    1
   284   249   250    1
   285   249   279    1
   286   249   306    1
   287   250   251    1
   288   250   307    1
   289   250   308    1
   290   251   252    1
   291   251   278    1
   292   252   253    2
   293   252   254    1
   294   254   255    1
   295   254   309    1
   296   254   310    1
   297   255   256    1
   298   256   257    1
   299   256   311    1
   300   256   312    1
   301   257   258    2
   302   257   259    1
   303   259   260    1
   304   259   277    1
   305   260   261    1
   306   260   313    1
   307   260   314    1
   308   261   262    1
   309   261   263    1
   310   261   315    1
   311   262   316    1
   312   262   317    1
   313   262   318    1
   314   263   264    1
   315   263   277    1
   316   263   319    1
   317   264   265    1
   318   264   320    1
   319   264   321    1
   320   265   266    1
   321   266   267    1
   322   266   268    1
   323   266   269    1
   324   267   322    1
   325   267   323    1
   326   267   324    1
   327   268   325    1
   328   268   326    1
   329   268   327    1
   330   269   270    1
   331   269   328    1
   332   269   329    1
   333   270   271    1
   334   270   330    1
   335   270   331    1
   336   271   272    1
   337   271   332    1
   338   271   333    1
   339   272   273    1
   340   272   334    1
   341   272   335    1
   342   273   274    1
   343   273   336    1
   344   273   337    1
   345   274   275    1
   346   274   338    1
   347   274   339    1
   348   275   276    1
   349   275   340    1
   350   275   341    1
   351   276   342    1
   352   276   343    1
   353   276   344    1
   354   277   345    1
   355   277   346    1
   356   278   279    1
   357   278   347    1
   358   278   348    1
   359   279   280    1
   360   279   349    1
   361   280   350    1
   362   280   351    1
   363   280   352    1
@<TRIPOS>SUBSTRUCTURE
     1 RES1      352 GROUP             0 ****  ****    0  
