@<TRIPOS>MOLECULE
am_c3_9H2O_c0_0_nunpairedes_0_charge_3 Charge: 3 Unpaired_Electrons: 6 XTB_Unpaired_Electrons: 0 XTB_Charge: 3
    74    81     1     0     0
SMALL
NoCharges
****
Generated from Architector

@<TRIPOS>ATOM
     1 Eu1      -0.0842    0.1194   -0.0245   Eu        1 RES1   0.0000
     2 C1       -1.7116    4.2839   -4.2954   C.3       1 RES1   0.0000
     3 C2       -1.6407    2.8515   -4.8589   C.3       1 RES1   0.0000
     4 C3       -2.9957    2.1742   -4.6414   C.3       1 RES1   0.0000
     5 C4       -1.3707    2.9218   -6.3711   C.3       1 RES1   0.0000
     6 C5        0.0497    3.3710   -6.7051   C.3       1 RES1   0.0000
     7 C6        1.1072    2.3945   -6.1734   C.3       1 RES1   0.0000
     8 C7        1.1447    1.1333   -7.0678   C.3       1 RES1   0.0000
     9 C8        2.4879    3.0651   -6.1892   C.3       1 RES1   0.0000
    10 C9        0.7604    1.9327   -4.7936   C.ar      1 RES1   0.0000
    11 N1        1.6983    1.3146   -4.0961   N.ar      1 RES1   0.0000
    12 C10       1.3914    0.8149   -2.9080   C.ar      1 RES1   0.0000
    13 C11       2.4740    0.1500   -2.1430   C.ar      1 RES1   0.0000
    14 C12       3.7465    0.0100   -2.6902   C.ar      1 RES1   0.0000
    15 C13       4.7211   -0.6038   -1.9160   C.ar      1 RES1   0.0000
    16 C14       4.3923   -1.0625   -0.6488   C.ar      1 RES1   0.0000
    17 C15       3.0892   -0.9071   -0.1741   C.ar      1 RES1   0.0000
    18 C16       2.6499   -1.4433    1.1415   C.ar      1 RES1   0.0000
    19 C17       3.5006   -2.1689    1.9689   C.ar      1 RES1   0.0000
    20 C18       3.0180   -2.6872    3.1626   C.ar      1 RES1   0.0000
    21 C19       1.6915   -2.4868    3.4983   C.ar      1 RES1   0.0000
    22 C20       0.8883   -1.7396    2.6333   C.ar      1 RES1   0.0000
    23 C21      -0.5284   -1.4431    2.9496   C.ar      1 RES1   0.0000
    24 C22      -1.1085   -1.7999    4.1671   C.ar      1 RES1   0.0000
    25 C23      -2.4135   -1.4231    4.4395   C.ar      1 RES1   0.0000
    26 C24      -3.1027   -0.6827    3.4970   C.ar      1 RES1   0.0000
    27 C25      -2.4726   -0.4051    2.2964   C.ar      1 RES1   0.0000
    28 N2       -1.2223   -0.7680    2.0029   N.ar      1 RES1   0.0000
    29 N3        1.3673   -1.2243    1.4872   N.ar      1 RES1   0.0000
    30 N4        2.1563   -0.2909   -0.9159   N.ar      1 RES1   0.0000
    31 N5        0.1779    0.8789   -2.3513   N.ar      1 RES1   0.0000
    32 N6       -0.7674    1.5612   -2.9991   N.ar      1 RES1   0.0000
    33 C26      -0.5340    2.0934   -4.1853   C.ar      1 RES1   0.0000
    34 H1       -2.4824    4.8097   -4.8513   H         1 RES1   0.0000
    35 H2       -0.7805    4.8294   -4.4329   H         1 RES1   0.0000
    36 H3       -1.9893    4.2923   -3.2426   H         1 RES1   0.0000
    37 H4       -3.7391    2.7408   -5.1920   H         1 RES1   0.0000
    38 H5       -3.2778    2.1636   -3.5932   H         1 RES1   0.0000
    39 H6       -2.9957    1.1591   -5.0310   H         1 RES1   0.0000
    40 H7       -2.0728    3.6333   -6.8051   H         1 RES1   0.0000
    41 H8       -1.5853    1.9593   -6.8422   H         1 RES1   0.0000
    42 H9        0.2302    4.3770   -6.3154   H         1 RES1   0.0000
    43 H10       0.1476    3.4465   -7.7888   H         1 RES1   0.0000
    44 H11       1.4018    1.4393   -8.0773   H         1 RES1   0.0000
    45 H12       0.1747    0.6409   -7.1043   H         1 RES1   0.0000
    46 H13       1.8987    0.4268   -6.7307   H         1 RES1   0.0000
    47 H14       2.7211    3.3788   -7.2004   H         1 RES1   0.0000
    48 H15       3.2632    2.3824   -5.8632   H         1 RES1   0.0000
    49 H16       2.4974    3.9522   -5.5611   H         1 RES1   0.0000
    50 H17       3.9438    0.3908   -3.6809   H         1 RES1   0.0000
    51 H18       5.7240   -0.7222   -2.2950   H         1 RES1   0.0000
    52 H19       5.1423   -1.5289   -0.0299   H         1 RES1   0.0000
    53 H20       4.5251   -2.3419    1.6946   H         1 RES1   0.0000
    54 H21       3.6757   -3.2468    3.8103   H         1 RES1   0.0000
    55 H22       1.3034   -2.9052    4.4132   H         1 RES1   0.0000
    56 H23      -0.5688   -2.3436    4.9264   H         1 RES1   0.0000
    57 H24      -2.8708   -1.6877    5.3767   H         1 RES1   0.0000
    58 H25      -4.0997   -0.3186    3.6849   H         1 RES1   0.0000
    59 H26      -3.0202    0.1402    1.5358   H         1 RES1   0.0000
    60 O1       -2.0061    1.5896   -0.4858   O.3       1 RES1   0.0000
    61 H27      -2.8656    1.1439   -0.5287   H         1 RES1   0.0000
    62 H28      -2.0068    2.1873   -1.2561   H         1 RES1   0.0000
    63 O2        1.4811    2.3083   -0.0876   O.3       1 RES1   0.0000
    64 H29       2.2399    2.4703    0.4924   H         1 RES1   0.0000
    65 H30       1.2292    3.1820   -0.4195   H         1 RES1   0.0000
    66 O3       -0.1702    1.8924    2.0098   O.3       1 RES1   0.0000
    67 H31      -0.7477    2.6710    1.9818   H         1 RES1   0.0000
    68 H32       0.2601    1.9223    2.8773   H         1 RES1   0.0000
    69 O4       -2.0547   -1.3037   -1.0114   O.3       1 RES1   0.0000
    70 H33      -2.3251   -2.1375   -0.5985   H         1 RES1   0.0000
    71 H34      -2.2368   -1.4412   -1.9534   H         1 RES1   0.0000
    72 O5        0.4962   -2.4081   -1.1679   O.3       1 RES1   0.0000
    73 H35       1.0454   -3.0832   -0.7477   H         1 RES1   0.0000
    74 H36       0.7046   -2.4827   -2.1084   H         1 RES1   0.0000
@<TRIPOS>BOND
     1     1    28    1
     2     1    29    1
     3     1    30    1
     4     1    31    1
     5     1    60    1
     6     1    63    1
     7     1    66    1
     8     1    69    1
     9     1    72    1
    10     2     3    1
    11     2    34    1
    12     2    35    1
    13     2    36    1
    14     3     4    1
    15     3     5    1
    16     3    33    1
    17     4    37    1
    18     4    38    1
    19     4    39    1
    20     5     6    1
    21     5    40    1
    22     5    41    1
    23     6     7    1
    24     6    42    1
    25     6    43    1
    26     7     8    1
    27     7     9    1
    28     7    10    1
    29     8    44    1
    30     8    45    1
    31     8    46    1
    32     9    47    1
    33     9    48    1
    34     9    49    1
    35    10    11    1
    36    10    33    2
    37    11    12    2
    38    12    13    1
    39    12    31    1
    40    13    14    1
    41    13    30    2
    42    14    15    2
    43    14    50    1
    44    15    16    1
    45    15    51    1
    46    16    17    2
    47    16    52    1
    48    17    18    1
    49    17    30    1
    50    18    19    1
    51    18    29    2
    52    19    20    2
    53    19    53    1
    54    20    21    1
    55    20    54    1
    56    21    22    2
    57    21    55    1
    58    22    23    1
    59    22    29    1
    60    23    24    1
    61    23    28    2
    62    24    25    2
    63    24    56    1
    64    25    26    1
    65    25    57    1
    66    26    27    2
    67    26    58    1
    68    27    28    1
    69    27    59    1
    70    31    32    2
    71    32    33    1
    72    60    61    1
    73    60    62    1
    74    63    64    1
    75    63    65    1
    76    66    67    1
    77    66    68    1
    78    69    70    1
    79    69    71    1
    80    72    73    1
    81    72    74    1
@<TRIPOS>SUBSTRUCTURE
     1 RES1       74 GROUP             0 ****  ****    0  
