@<TRIPOS>MOLECULE
tri_tri_mer_capped_0_nunpairedes_0_charge_3 Charge: 3 Unpaired_Electrons: 6 XTB_Unpaired_Electrons: 0 XTB_Charge: 3
   100   110     1     0     0
SMALL
NoCharges
****
Generated from Architector

@<TRIPOS>ATOM
     1 Eu1       0.1001    0.2130    0.0057   Eu        1 RES1   0.0000
     2 C1       -0.5946    5.6035    2.0135   C.3       1 RES1   0.0000
     3 C2        0.7566    5.0729    2.5267   C.3       1 RES1   0.0000
     4 C3        1.8117    5.2826    1.4339   C.3       1 RES1   0.0000
     5 C4        1.1689    5.7848    3.8216   C.3       1 RES1   0.0000
     6 C5        0.3212    5.3704    5.0211   C.3       1 RES1   0.0000
     7 C6        0.4431    3.8766    5.3580   C.3       1 RES1   0.0000
     8 C7        1.8156    3.5812    6.0000   C.3       1 RES1   0.0000
     9 C8       -0.6609    3.4474    6.3340   C.3       1 RES1   0.0000
    10 C9        0.3379    3.0711    4.1107   C.ar      1 RES1   0.0000
    11 N1       -0.0243    1.8008    4.2126   N.ar      1 RES1   0.0000
    12 C10      -0.0383    1.0516    3.1214   C.ar      1 RES1   0.0000
    13 C11      -0.6041   -0.3192    3.1522   C.ar      1 RES1   0.0000
    14 C12      -0.8902   -1.0143    4.3243   C.ar      1 RES1   0.0000
    15 C13      -1.5404   -2.2370    4.2115   C.ar      1 RES1   0.0000
    16 C14      -1.9509   -2.6948    2.9650   C.ar      1 RES1   0.0000
    17 C15      -1.6362   -1.9353    1.8337   C.ar      1 RES1   0.0000
    18 C16      -2.1293   -2.2213    0.4554   C.ar      1 RES1   0.0000
    19 C17      -3.0972   -3.1902    0.1828   C.ar      1 RES1   0.0000
    20 C18      -3.6280   -3.2604   -1.0978   C.ar      1 RES1   0.0000
    21 C19      -3.1835   -2.3874   -2.0804   C.ar      1 RES1   0.0000
    22 C20      -2.1638   -1.4912   -1.7620   C.ar      1 RES1   0.0000
    23 C21      -1.5572   -0.5706   -2.7648   C.ar      1 RES1   0.0000
    24 C22      -2.0904   -0.2873   -4.0278   C.ar      1 RES1   0.0000
    25 C23      -1.4136    0.6084   -4.8473   C.ar      1 RES1   0.0000
    26 C24      -0.2132    1.1724   -4.4338   C.ar      1 RES1   0.0000
    27 C25       0.2766    0.8101   -3.1799   C.ar      1 RES1   0.0000
    28 C26       1.5687    1.2850   -2.6341   C.ar      1 RES1   0.0000
    29 N2        1.7714    1.0836   -1.3229   N.ar      1 RES1   0.0000
    30 N3        3.0098    1.1690   -0.8667   N.ar      1 RES1   0.0000
    31 C27       3.9970    1.5845   -1.6288   C.ar      1 RES1   0.0000
    32 C28       3.6664    2.1396   -2.9096   C.ar      1 RES1   0.0000
    33 N4        2.4709    1.8739   -3.4030   N.ar      1 RES1   0.0000
    34 C29       4.6349    2.9558   -3.6925   C.3       1 RES1   0.0000
    35 C30       4.4699    4.4392   -3.3020   C.3       1 RES1   0.0000
    36 C31       4.3355    2.8032   -5.1854   C.3       1 RES1   0.0000
    37 C32       6.0550    2.4604   -3.3642   C.3       1 RES1   0.0000
    38 C33       6.3355    2.3977   -1.8660   C.3       1 RES1   0.0000
    39 C34       5.4030    1.4323   -1.1213   C.3       1 RES1   0.0000
    40 C35       5.7981   -0.0311   -1.3960   C.3       1 RES1   0.0000
    41 C36       5.4654    1.6878    0.3891   C.3       1 RES1   0.0000
    42 N5       -0.4023   -0.0153   -2.3685   N.ar      1 RES1   0.0000
    43 N6       -1.6595   -1.4202   -0.5182   N.ar      1 RES1   0.0000
    44 N7       -0.9253   -0.8053    1.9448   N.ar      1 RES1   0.0000
    45 N8        0.3618    1.4960    1.9238   N.ar      1 RES1   0.0000
    46 N9        0.6243    2.7825    1.7768   N.ar      1 RES1   0.0000
    47 C37       0.5799    3.6069    2.8046   C.ar      1 RES1   0.0000
    48 H1       -0.5331    6.6765    1.8584   H         1 RES1   0.0000
    49 H2       -1.4001    5.4104    2.7155   H         1 RES1   0.0000
    50 H3       -0.8557    5.1403    1.0638   H         1 RES1   0.0000
    51 H4        1.9317    6.3431    1.2355   H         1 RES1   0.0000
    52 H5        1.5250    4.7844    0.5115   H         1 RES1   0.0000
    53 H6        2.7720    4.8881    1.7509   H         1 RES1   0.0000
    54 H7        1.0762    6.8594    3.6722   H         1 RES1   0.0000
    55 H8        2.2188    5.5722    4.0266   H         1 RES1   0.0000
    56 H9       -0.7264    5.6092    4.8328   H         1 RES1   0.0000
    57 H10       0.6323    5.9446    5.8926   H         1 RES1   0.0000
    58 H11       1.9010    4.1546    6.9184   H         1 RES1   0.0000
    59 H12       2.6392    3.8597    5.3484   H         1 RES1   0.0000
    60 H13       1.9161    2.5280    6.2457   H         1 RES1   0.0000
    61 H14      -0.6060    4.0638    7.2249   H         1 RES1   0.0000
    62 H15      -0.5509    2.4059    6.6194   H         1 RES1   0.0000
    63 H16      -1.6431    3.5760    5.8856   H         1 RES1   0.0000
    64 H17      -0.6135   -0.6111    5.2854   H         1 RES1   0.0000
    65 H18      -1.7529   -2.8146    5.0982   H         1 RES1   0.0000
    66 H19      -2.4966   -3.6224    2.8921   H         1 RES1   0.0000
    67 H20      -3.4491   -3.8723    0.9403   H         1 RES1   0.0000
    68 H21      -4.3954   -3.9843   -1.3215   H         1 RES1   0.0000
    69 H22      -3.6050   -2.4129   -3.0715   H         1 RES1   0.0000
    70 H23      -3.0075   -0.7261   -4.3943   H         1 RES1   0.0000
    71 H24      -1.8193    0.8569   -5.8171   H         1 RES1   0.0000
    72 H25       0.3357    1.8686   -5.0475   H         1 RES1   0.0000
    73 H26       3.4799    4.8003   -3.5666   H         1 RES1   0.0000
    74 H27       5.2010    5.0270   -3.8491   H         1 RES1   0.0000
    75 H28       4.6247    4.6123   -2.2406   H         1 RES1   0.0000
    76 H29       3.3536    3.1992   -5.4239   H         1 RES1   0.0000
    77 H30       4.3631    1.7565   -5.4746   H         1 RES1   0.0000
    78 H31       5.0806    3.3399   -5.7615   H         1 RES1   0.0000
    79 H32       6.7695    3.1375   -3.8293   H         1 RES1   0.0000
    80 H33       6.2040    1.4753   -3.8108   H         1 RES1   0.0000
    81 H34       6.2436    3.3953   -1.4352   H         1 RES1   0.0000
    82 H35       7.3632    2.0732   -1.7085   H         1 RES1   0.0000
    83 H36       5.7317   -0.2706   -2.4529   H         1 RES1   0.0000
    84 H37       5.1502   -0.7138   -0.8511   H         1 RES1   0.0000
    85 H38       6.8202   -0.2046   -1.0743   H         1 RES1   0.0000
    86 H39       5.1390    2.6964    0.6251   H         1 RES1   0.0000
    87 H40       6.4868    1.5760    0.7389   H         1 RES1   0.0000
    88 H41       4.8395    0.9844    0.9311   H         1 RES1   0.0000
    89 O1        2.2144   -0.6455    1.2800   O.3       1 RES1   0.0000
    90 H42       2.7618    0.0060    1.7422   H         1 RES1   0.0000
    91 H43       2.8476   -1.2501    0.8668   H         1 RES1   0.0000
    92 O2       -2.5332    1.0288    0.8008   O.3       1 RES1   0.0000
    93 H44      -3.3143    0.4707    0.7025   H         1 RES1   0.0000
    94 H45      -2.7279    1.5585    1.5829   H         1 RES1   0.0000
    95 O3        1.2897   -2.0925   -0.9888   O.3       1 RES1   0.0000
    96 H46       1.7457   -2.1246   -1.8406   H         1 RES1   0.0000
    97 H47       1.0969   -3.0194   -0.7964   H         1 RES1   0.0000
    98 O4       -0.8586    2.5288   -0.8106   O.3       1 RES1   0.0000
    99 H48      -0.7655    3.3116   -0.2450   H         1 RES1   0.0000
   100 H49      -1.6076    2.7374   -1.3860   H         1 RES1   0.0000
@<TRIPOS>BOND
     1     1    29    1
     2     1    42    1
     3     1    43    1
     4     1    44    1
     5     1    45    1
     6     1    89    1
     7     1    92    1
     8     1    95    1
     9     1    98    1
    10     2     3    1
    11     2    48    1
    12     2    49    1
    13     2    50    1
    14     3     4    1
    15     3     5    1
    16     3    47    1
    17     4    51    1
    18     4    52    1
    19     4    53    1
    20     5     6    1
    21     5    54    1
    22     5    55    1
    23     6     7    1
    24     6    56    1
    25     6    57    1
    26     7     8    1
    27     7     9    1
    28     7    10    1
    29     8    58    1
    30     8    59    1
    31     8    60    1
    32     9    61    1
    33     9    62    1
    34     9    63    1
    35    10    11    1
    36    10    47    2
    37    11    12    2
    38    12    13    1
    39    12    45    1
    40    13    14    1
    41    13    44    2
    42    14    15    2
    43    14    64    1
    44    15    16    1
    45    15    65    1
    46    16    17    2
    47    16    66    1
    48    17    18    1
    49    17    44    1
    50    18    19    1
    51    18    43    2
    52    19    20    2
    53    19    67    1
    54    20    21    1
    55    20    68    1
    56    21    22    2
    57    21    69    1
    58    22    23    1
    59    22    43    1
    60    23    24    1
    61    23    42    2
    62    24    25    2
    63    24    70    1
    64    25    26    1
    65    25    71    1
    66    26    27    2
    67    26    72    1
    68    27    28    1
    69    27    42    1
    70    28    29    1
    71    28    33    2
    72    29    30    2
    73    30    31    1
    74    31    32    2
    75    31    39    1
    76    32    33    1
    77    32    34    1
    78    34    35    1
    79    34    36    1
    80    34    37    1
    81    35    73    1
    82    35    74    1
    83    35    75    1
    84    36    76    1
    85    36    77    1
    86    36    78    1
    87    37    38    1
    88    37    79    1
    89    37    80    1
    90    38    39    1
    91    38    81    1
    92    38    82    1
    93    39    40    1
    94    39    41    1
    95    40    83    1
    96    40    84    1
    97    40    85    1
    98    41    86    1
    99    41    87    1
   100    41    88    1
   101    45    46    2
   102    46    47    1
   103    89    90    1
   104    89    91    1
   105    92    93    1
   106    92    94    1
   107    95    96    1
   108    95    97    1
   109    98    99    1
   110    98   100    1
@<TRIPOS>SUBSTRUCTURE
     1 RES1      100 GROUP             0 ****  ****    0  
