@<TRIPOS>MOLECULE
am_c3_9H2O_c0_0_nunpairedes_0_charge_3 Charge: 3 Unpaired_Electrons: 6 XTB_Unpaired_Electrons: 0 XTB_Charge: 3
   232   246     1     0     0
SMALL
NoCharges
****
Generated from Architector

@<TRIPOS>ATOM
     1 Eu1       0.0141    0.0911    0.0313   Eu        1 RES1   0.0000
     2 C1       -4.4113   -0.5072   -5.1087   C.3       1 RES1   0.0000
     3 C2       -3.2015    0.4170   -5.1598   C.3       1 RES1   0.0000
     4 C3       -2.4093    0.3372   -6.4686   C.3       1 RES1   0.0000
     5 C4       -1.9179   -1.0635   -6.8397   C.3       1 RES1   0.0000
     6 C5       -1.1388   -1.7090   -5.6973   C.3       1 RES1   0.0000
     7 C6       -0.7624   -3.1616   -5.9690   C.3       1 RES1   0.0000
     8 C7       -0.2779   -3.8644   -4.7001   C.3       1 RES1   0.0000
     9 C8       -1.4188   -4.1160   -3.7073   C.3       1 RES1   0.0000
    10 N1       -1.6828   -2.9798   -2.8549   N.ar      1 RES1   0.0000
    11 C9       -2.8609   -2.5800   -2.3449   C.ar      1 RES1   0.0000
    12 C10      -2.5424   -1.4983   -1.5407   C.ar      1 RES1   0.0000
    13 C11      -3.3093   -0.6415   -0.6499   C.ar      1 RES1   0.0000
    14 C12      -4.7003   -0.6128   -0.6404   C.ar      1 RES1   0.0000
    15 C13      -5.3423    0.1725    0.3078   C.ar      1 RES1   0.0000
    16 C14      -6.8228    0.3808    0.3034   C.3       1 RES1   0.0000
    17 C15      -6.8827    1.8927    0.0369   C.2       1 RES1   0.0000
    18 O1       -6.9430    2.7000    0.9127   O.2       1 RES1   0.0000
    19 O2       -6.6576    2.2454   -1.2343   O.3       1 RES1   0.0000
    20 C16      -4.5668    0.9066    1.2056   C.ar      1 RES1   0.0000
    21 C17      -3.1852    0.8568    1.0877   C.ar      1 RES1   0.0000
    22 C18      -2.3013    1.5925    1.9749   C.ar      1 RES1   0.0000
    23 C19      -2.5313    2.4169    3.0700   C.ar      1 RES1   0.0000
    24 N2       -1.3028    2.7173    3.5253   N.ar      1 RES1   0.0000
    25 C20      -0.9257    3.5056    4.6669   C.3       1 RES1   0.0000
    26 C21      -0.0322    4.6854    4.2746   C.3       1 RES1   0.0000
    27 C22      -0.7584    5.7642    3.4641   C.3       1 RES1   0.0000
    28 C23      -0.7276    5.4973    1.9614   C.3       1 RES1   0.0000
    29 C24      -1.3599    6.6242    1.1447   C.3       1 RES1   0.0000
    30 C25      -2.8348    6.8969    1.4572   C.3       1 RES1   0.0000
    31 C26      -3.7387    5.6633    1.4313   C.3       1 RES1   0.0000
    32 C27      -3.7394    4.9455    0.0866   C.3       1 RES1   0.0000
    33 N3       -0.3794    2.1411    2.7818   N.ar      1 RES1   0.0000
    34 N4       -0.9543    1.4665    1.8505   N.ar      1 RES1   0.0000
    35 N5       -2.5645    0.0952    0.1776   N.ar      1 RES1   0.0000
    36 N6       -1.1973   -1.3280   -1.6221   N.ar      1 RES1   0.0000
    37 N7       -0.7073   -2.2182   -2.4084   N.ar      1 RES1   0.0000
    38 H1       -4.9181   -0.4035   -4.1495   H         1 RES1   0.0000
    39 H2       -4.1281   -1.5490   -5.2339   H         1 RES1   0.0000
    40 H3       -5.1177   -0.2497   -5.8934   H         1 RES1   0.0000
    41 H4       -2.5441    0.2257   -4.3055   H         1 RES1   0.0000
    42 H5       -3.5597    1.4393   -5.0524   H         1 RES1   0.0000
    43 H6       -1.5465    0.9999   -6.3860   H         1 RES1   0.0000
    44 H7       -3.0261    0.7108   -7.2859   H         1 RES1   0.0000
    45 H8       -1.2881   -1.0005   -7.7307   H         1 RES1   0.0000
    46 H9       -2.7724   -1.6937   -7.0926   H         1 RES1   0.0000
    47 H10      -1.7644   -1.6736   -4.8079   H         1 RES1   0.0000
    48 H11      -0.2385   -1.1236   -5.4879   H         1 RES1   0.0000
    49 H12       0.0158   -3.2081   -6.7290   H         1 RES1   0.0000
    50 H13      -1.6268   -3.6953   -6.3696   H         1 RES1   0.0000
    51 H14       0.4958   -3.2758   -4.2055   H         1 RES1   0.0000
    52 H15       0.1501   -4.8286   -4.9628   H         1 RES1   0.0000
    53 H16      -1.1806   -4.9583   -3.0495   H         1 RES1   0.0000
    54 H17      -2.3406   -4.3445   -4.2475   H         1 RES1   0.0000
    55 H18      -3.7809   -3.0802   -2.5745   H         1 RES1   0.0000
    56 H19      -5.2660   -1.1957   -1.3523   H         1 RES1   0.0000
    57 H20      -7.2607    0.1753    1.2792   H         1 RES1   0.0000
    58 H21      -7.3300   -0.2255   -0.4455   H         1 RES1   0.0000
    59 H22      -6.6321    1.4962   -1.8480   H         1 RES1   0.0000
    60 H23      -5.0410    1.5255    1.9563   H         1 RES1   0.0000
    61 H24      -3.4246    2.7723    3.5344   H         1 RES1   0.0000
    62 H25      -0.3852    2.8454    5.3522   H         1 RES1   0.0000
    63 H26      -1.8323    3.8653    5.1531   H         1 RES1   0.0000
    64 H27       0.8249    4.3046    3.7123   H         1 RES1   0.0000
    65 H28       0.3315    5.1087    5.2095   H         1 RES1   0.0000
    66 H29      -0.2763    6.7237    3.6517   H         1 RES1   0.0000
    67 H30      -1.7888    5.8518    3.8110   H         1 RES1   0.0000
    68 H31      -1.2277    4.5565    1.7252   H         1 RES1   0.0000
    69 H32       0.3145    5.3885    1.6474   H         1 RES1   0.0000
    70 H33      -1.2564    6.3824    0.0845   H         1 RES1   0.0000
    71 H34      -0.7979    7.5437    1.3221   H         1 RES1   0.0000
    72 H35      -3.2055    7.6187    0.7269   H         1 RES1   0.0000
    73 H36      -2.9183    7.3680    2.4371   H         1 RES1   0.0000
    74 H37      -4.7578    5.9787    1.6553   H         1 RES1   0.0000
    75 H38      -3.4372    4.9642    2.2136   H         1 RES1   0.0000
    76 H39      -3.9067    5.6710   -0.7080   H         1 RES1   0.0000
    77 H40      -4.5377    4.2059    0.0593   H         1 RES1   0.0000
    78 H41      -2.7879    4.4383   -0.0837   H         1 RES1   0.0000
    79 C28       7.7747    3.3477    2.9884   C.3       1 RES1   0.0000
    80 C29       8.3129    2.2468    2.0809   C.3       1 RES1   0.0000
    81 C30       7.6056    0.9101    2.3104   C.3       1 RES1   0.0000
    82 C31       7.9513    0.2386    3.6423   C.3       1 RES1   0.0000
    83 C32       7.0608   -0.9690    3.9536   C.3       1 RES1   0.0000
    84 C33       5.6130   -0.5204    4.1078   C.3       1 RES1   0.0000
    85 C34       4.6143   -1.6300    4.4081   C.3       1 RES1   0.0000
    86 C35       3.2103   -1.0242    4.5851   C.3       1 RES1   0.0000
    87 N8        2.8040   -0.2703    3.4237   N.ar      1 RES1   0.0000
    88 C36       3.0497    1.0234    3.1380   C.ar      1 RES1   0.0000
    89 C37       2.4907    1.2283    1.8885   C.ar      1 RES1   0.0000
    90 C38       2.2947    2.4112    1.0493   C.ar      1 RES1   0.0000
    91 C39       3.0697    3.5681    1.1447   C.ar      1 RES1   0.0000
    92 C40       2.7417    4.6608    0.3463   C.ar      1 RES1   0.0000
    93 C41       3.5447    5.9277    0.2833   C.3       1 RES1   0.0000
    94 C42       4.0501    6.0158   -1.1696   C.2       1 RES1   0.0000
    95 O3        4.5940    5.0825   -1.6856   O.2       1 RES1   0.0000
    96 O4        3.7995    7.1239   -1.8535   O.3       1 RES1   0.0000
    97 C43       1.6423    4.5465   -0.5079   C.ar      1 RES1   0.0000
    98 C44       0.9428    3.3502   -0.5639   C.ar      1 RES1   0.0000
    99 C45      -0.2490    3.1614   -1.3828   C.ar      1 RES1   0.0000
   100 C46      -1.0595    4.0254   -2.1069   C.ar      1 RES1   0.0000
   101 N9       -2.0947    3.2672   -2.5129   N.ar      1 RES1   0.0000
   102 C47      -3.3136    3.6801   -3.1714   C.3       1 RES1   0.0000
   103 C48      -3.0749    4.6001   -4.3662   C.3       1 RES1   0.0000
   104 C49      -2.4022    3.8845   -5.5414   C.3       1 RES1   0.0000
   105 C50      -1.6279    4.8369   -6.4543   C.3       1 RES1   0.0000
   106 C51      -0.2686    5.2280   -5.8645   C.3       1 RES1   0.0000
   107 C52       0.2820    6.5419   -6.4345   C.3       1 RES1   0.0000
   108 C53      -0.1021    7.7722   -5.6062   C.3       1 RES1   0.0000
   109 C54      -1.5717    8.1699   -5.6971   C.3       1 RES1   0.0000
   110 N10      -1.9412    2.0257   -2.0928   N.ar      1 RES1   0.0000
   111 N11      -0.8507    1.9417   -1.4125   N.ar      1 RES1   0.0000
   112 N12       1.2722    2.2977    0.1954   N.ar      1 RES1   0.0000
   113 N13       1.9458    0.0365    1.5113   N.ar      1 RES1   0.0000
   114 N14       2.1510   -0.8387    2.4334   N.ar      1 RES1   0.0000
   115 H42       8.2012    4.3068    2.7093   H         1 RES1   0.0000
   116 H43       8.0254    3.1553    4.0275   H         1 RES1   0.0000
   117 H44       6.6891    3.4135    2.9052   H         1 RES1   0.0000
   118 H45       9.3862    2.1354    2.2342   H         1 RES1   0.0000
   119 H46       8.1629    2.5444    1.0387   H         1 RES1   0.0000
   120 H47       7.8588    0.2201    1.5044   H         1 RES1   0.0000
   121 H48       6.5312    1.1058    2.2490   H         1 RES1   0.0000
   122 H49       7.8506    0.9618    4.4528   H         1 RES1   0.0000
   123 H50       8.9941   -0.0811    3.6161   H         1 RES1   0.0000
   124 H51       7.4005   -1.4396    4.8770   H         1 RES1   0.0000
   125 H52       7.1408   -1.7115    3.1591   H         1 RES1   0.0000
   126 H53       5.3115   -0.0431    3.1741   H         1 RES1   0.0000
   127 H54       5.5681    0.2251    4.9059   H         1 RES1   0.0000
   128 H55       4.8754   -2.1480    5.3319   H         1 RES1   0.0000
   129 H56       4.6056   -2.3685    3.6044   H         1 RES1   0.0000
   130 H57       3.2122   -0.3413    5.4378   H         1 RES1   0.0000
   131 H58       2.4677   -1.8096    4.7471   H         1 RES1   0.0000
   132 H59       3.5449    1.6848    3.8212   H         1 RES1   0.0000
   133 H60       3.9126    3.5944    1.8206   H         1 RES1   0.0000
   134 H61       4.4069    5.8851    0.9466   H         1 RES1   0.0000
   135 H62       2.9371    6.7875    0.5758   H         1 RES1   0.0000
   136 H63       3.3940    7.8640   -1.3783   H         1 RES1   0.0000
   137 H64       1.3390    5.3713   -1.1361   H         1 RES1   0.0000
   138 H65      -0.9850    5.0678   -2.3322   H         1 RES1   0.0000
   139 H66      -3.9358    4.1929   -2.4280   H         1 RES1   0.0000
   140 H67      -3.8242    2.7649   -3.4824   H         1 RES1   0.0000
   141 H68      -2.4801    5.4554   -4.0484   H         1 RES1   0.0000
   142 H69      -4.0470    4.9841   -4.6765   H         1 RES1   0.0000
   143 H70      -3.1694    3.3735   -6.1217   H         1 RES1   0.0000
   144 H71      -1.7128    3.1282   -5.1599   H         1 RES1   0.0000
   145 H72      -2.2253    5.7271   -6.6422   H         1 RES1   0.0000
   146 H73      -1.4651    4.3521   -7.4183   H         1 RES1   0.0000
   147 H74       0.4439    4.4190   -6.0529   H         1 RES1   0.0000
   148 H75      -0.3430    5.3360   -4.7788   H         1 RES1   0.0000
   149 H76      -0.0669    6.6684   -7.4603   H         1 RES1   0.0000
   150 H77       1.3736    6.4908   -6.4738   H         1 RES1   0.0000
   151 H78       0.5053    8.6086   -5.9509   H         1 RES1   0.0000
   152 H79       0.1645    7.5921   -4.5598   H         1 RES1   0.0000
   153 H80      -1.8875    8.2181   -6.7361   H         1 RES1   0.0000
   154 H81      -1.7167    9.1539   -5.2597   H         1 RES1   0.0000
   155 H82      -2.2137    7.4708   -5.1650   H         1 RES1   0.0000
   156 C55       8.1683   -2.1775   -2.1287   C.3       1 RES1   0.0000
   157 C56       8.3296   -1.0061   -1.1664   C.3       1 RES1   0.0000
   158 C57       7.3506    0.1335   -1.4630   C.3       1 RES1   0.0000
   159 C58       7.7012    0.9220   -2.7276   C.3       1 RES1   0.0000
   160 C59       6.5793    1.8520   -3.1941   C.3       1 RES1   0.0000
   161 C60       5.3834    1.0423   -3.6798   C.3       1 RES1   0.0000
   162 C61       4.2256    1.8916   -4.1860   C.3       1 RES1   0.0000
   163 C62       3.0748    0.9851   -4.6536   C.3       1 RES1   0.0000
   164 N15       2.6063    0.1905   -3.5454   N.ar      1 RES1   0.0000
   165 C63       2.9751   -1.0466   -3.1597   C.ar      1 RES1   0.0000
   166 C64       2.3097   -1.2624   -1.9626   C.ar      1 RES1   0.0000
   167 C65       2.1835   -2.3839   -1.0314   C.ar      1 RES1   0.0000
   168 C66       3.0235   -3.4980   -1.0280   C.ar      1 RES1   0.0000
   169 C67       2.8033   -4.4960   -0.0831   C.ar      1 RES1   0.0000
   170 C68       3.7630   -5.6257    0.1490   C.3       1 RES1   0.0000
   171 C69       4.3791   -5.3385    1.5331   C.2       1 RES1   0.0000
   172 O5        4.7789   -4.2426    1.8079   O.2       1 RES1   0.0000
   173 O6        4.3951   -6.3113    2.4301   O.3       1 RES1   0.0000
   174 C70       1.7205   -4.3580    0.7881   C.ar      1 RES1   0.0000
   175 C71       0.9471   -3.2081    0.7319   C.ar      1 RES1   0.0000
   176 C72      -0.1703   -2.9241    1.6319   C.ar      1 RES1   0.0000
   177 C73      -0.9767   -3.6763    2.4766   C.ar      1 RES1   0.0000
   178 N16      -1.8751   -2.7980    2.9681   N.ar      1 RES1   0.0000
   179 C74      -3.0390   -3.0299    3.7955   C.3       1 RES1   0.0000
   180 C75      -2.7241   -3.7539    5.1019   C.3       1 RES1   0.0000
   181 C76      -1.9753   -2.8845    6.1166   C.3       1 RES1   0.0000
   182 C77      -1.1383   -3.7346    7.0779   C.3       1 RES1   0.0000
   183 C78       0.1713   -4.2182    6.4416   C.3       1 RES1   0.0000
   184 C79       0.7417   -5.4822    7.1033   C.3       1 RES1   0.0000
   185 C80       0.3489   -6.7786    6.3867   C.3       1 RES1   0.0000
   186 C81      -1.1128   -7.1773    6.5574   C.3       1 RES1   0.0000
   187 N17      -1.6420   -1.5930    2.4854   N.ar      1 RES1   0.0000
   188 N18      -0.6390   -1.6474    1.6818   N.ar      1 RES1   0.0000
   189 N19       1.1832   -2.2373   -0.1572   N.ar      1 RES1   0.0000
   190 N20       1.6018   -0.1254   -1.7112   N.ar      1 RES1   0.0000
   191 N21       1.7923    0.7218   -2.6585   N.ar      1 RES1   0.0000
   192 H83       8.8130   -2.9985   -1.8293   H         1 RES1   0.0000
   193 H84       8.4335   -1.8931   -3.1427   H         1 RES1   0.0000
   194 H85       7.1370   -2.5295   -2.1281   H         1 RES1   0.0000
   195 H86       9.3537   -0.6338   -1.2082   H         1 RES1   0.0000
   196 H87       8.1544   -1.3675   -0.1487   H         1 RES1   0.0000
   197 H88       7.3252    0.8270   -0.6198   H         1 RES1   0.0000
   198 H89       6.3529   -0.3064   -1.5479   H         1 RES1   0.0000
   199 H90       7.9295    0.2265   -3.5360   H         1 RES1   0.0000
   200 H91       8.6010    1.5091   -2.5365   H         1 RES1   0.0000
   201 H92       6.9479    2.4741   -4.0096   H         1 RES1   0.0000
   202 H93       6.2745    2.5181   -2.3857   H         1 RES1   0.0000
   203 H94       5.0272    0.4244   -2.8529   H         1 RES1   0.0000
   204 H95       5.7112    0.3782   -4.4817   H         1 RES1   0.0000
   205 H96       4.5458    2.5117   -5.0236   H         1 RES1   0.0000
   206 H97       3.8697    2.5569   -3.3963   H         1 RES1   0.0000
   207 H98       3.4209    0.3159   -5.4438   H         1 RES1   0.0000
   208 H99       2.2366    1.5811   -5.0238   H         1 RES1   0.0000
   209 H100      3.6476   -1.6495   -3.7362   H         1 RES1   0.0000
   210 H101      3.8471   -3.5587   -1.7252   H         1 RES1   0.0000
   211 H102      4.5658   -5.6137   -0.5889   H         1 RES1   0.0000
   212 H103      3.2673   -6.5967    0.0935   H         1 RES1   0.0000
   213 H104      4.0892   -7.1874    2.1543   H         1 RES1   0.0000
   214 H105      1.5067   -5.1140    1.5287   H         1 RES1   0.0000
   215 H106     -1.0003   -4.7212    2.7068   H         1 RES1   0.0000
   216 H107     -3.7515   -3.6243    3.2107   H         1 RES1   0.0000
   217 H108     -3.4734   -2.0469    4.0026   H         1 RES1   0.0000
   218 H109     -2.1465   -4.6498    4.8768   H         1 RES1   0.0000
   219 H110     -3.6744   -4.0796    5.5262   H         1 RES1   0.0000
   220 H111     -2.7023   -2.2993    6.6791   H         1 RES1   0.0000
   221 H112     -1.3185   -2.1820    5.5972   H         1 RES1   0.0000
   222 H113     -1.7283   -4.5888    7.4083   H         1 RES1   0.0000
   223 H114     -0.9010   -3.1485    7.9667   H         1 RES1   0.0000
   224 H115      0.9087   -3.4107    6.4984   H         1 RES1   0.0000
   225 H116      0.0170   -4.4329    5.3801   H         1 RES1   0.0000
   226 H117      0.4152   -5.5298    8.1432   H         1 RES1   0.0000
   227 H118      1.8331   -5.4232    7.1141   H         1 RES1   0.0000
   228 H119      0.9726   -7.5821    6.7783   H         1 RES1   0.0000
   229 H120      0.5820   -6.6813    5.3212   H         1 RES1   0.0000
   230 H121     -1.3851   -7.1740    7.6096   H         1 RES1   0.0000
   231 H122     -1.2711   -8.1827    6.1759   H         1 RES1   0.0000
   232 H123     -1.7796   -6.5051    6.0216   H         1 RES1   0.0000
@<TRIPOS>BOND
     1     1    34    1
     2     1    35    1
     3     1    36    1
     4     1   111    1
     5     1   112    1
     6     1   113    1
     7     1   188    1
     8     1   189    1
     9     1   190    1
    10     2     3    1
    11     2    38    1
    12     2    39    1
    13     2    40    1
    14     3     4    1
    15     3    41    1
    16     3    42    1
    17     4     5    1
    18     4    43    1
    19     4    44    1
    20     5     6    1
    21     5    45    1
    22     5    46    1
    23     6     7    1
    24     6    47    1
    25     6    48    1
    26     7     8    1
    27     7    49    1
    28     7    50    1
    29     8     9    1
    30     8    51    1
    31     8    52    1
    32     9    10    1
    33     9    53    1
    34     9    54    1
    35    10    11    1
    36    10    37    1
    37    11    12    2
    38    11    55    1
    39    12    13    1
    40    12    36    1
    41    13    14    1
    42    13    35    2
    43    14    15    2
    44    14    56    1
    45    15    16    1
    46    15    20    1
    47    16    17    1
    48    16    57    1
    49    16    58    1
    50    17    18    2
    51    17    19    1
    52    19    59    1
    53    20    21    2
    54    20    60    1
    55    21    22    1
    56    21    35    1
    57    22    23    2
    58    22    34    1
    59    23    24    1
    60    23    61    1
    61    24    25    1
    62    24    33    1
    63    25    26    1
    64    25    62    1
    65    25    63    1
    66    26    27    1
    67    26    64    1
    68    26    65    1
    69    27    28    1
    70    27    66    1
    71    27    67    1
    72    28    29    1
    73    28    68    1
    74    28    69    1
    75    29    30    1
    76    29    70    1
    77    29    71    1
    78    30    31    1
    79    30    72    1
    80    30    73    1
    81    31    32    1
    82    31    74    1
    83    31    75    1
    84    32    76    1
    85    32    77    1
    86    32    78    1
    87    33    34    2
    88    36    37    2
    89    79    80    1
    90    79   115    1
    91    79   116    1
    92    79   117    1
    93    80    81    1
    94    80   118    1
    95    80   119    1
    96    81    82    1
    97    81   120    1
    98    81   121    1
    99    82    83    1
   100    82   122    1
   101    82   123    1
   102    83    84    1
   103    83   124    1
   104    83   125    1
   105    84    85    1
   106    84   126    1
   107    84   127    1
   108    85    86    1
   109    85   128    1
   110    85   129    1
   111    86    87    1
   112    86   130    1
   113    86   131    1
   114    87    88    1
   115    87   114    1
   116    88    89    2
   117    88   132    1
   118    89    90    1
   119    89   113    1
   120    90    91    1
   121    90   112    2
   122    91    92    2
   123    91   133    1
   124    92    93    1
   125    92    97    1
   126    93    94    1
   127    93   134    1
   128    93   135    1
   129    94    95    2
   130    94    96    1
   131    96   136    1
   132    97    98    2
   133    97   137    1
   134    98    99    1
   135    98   112    1
   136    99   100    2
   137    99   111    1
   138   100   101    1
   139   100   138    1
   140   101   102    1
   141   101   110    1
   142   102   103    1
   143   102   139    1
   144   102   140    1
   145   103   104    1
   146   103   141    1
   147   103   142    1
   148   104   105    1
   149   104   143    1
   150   104   144    1
   151   105   106    1
   152   105   145    1
   153   105   146    1
   154   106   107    1
   155   106   147    1
   156   106   148    1
   157   107   108    1
   158   107   149    1
   159   107   150    1
   160   108   109    1
   161   108   151    1
   162   108   152    1
   163   109   153    1
   164   109   154    1
   165   109   155    1
   166   110   111    2
   167   113   114    2
   168   156   157    1
   169   156   192    1
   170   156   193    1
   171   156   194    1
   172   157   158    1
   173   157   195    1
   174   157   196    1
   175   158   159    1
   176   158   197    1
   177   158   198    1
   178   159   160    1
   179   159   199    1
   180   159   200    1
   181   160   161    1
   182   160   201    1
   183   160   202    1
   184   161   162    1
   185   161   203    1
   186   161   204    1
   187   162   163    1
   188   162   205    1
   189   162   206    1
   190   163   164    1
   191   163   207    1
   192   163   208    1
   193   164   165    1
   194   164   191    1
   195   165   166    2
   196   165   209    1
   197   166   167    1
   198   166   190    1
   199   167   168    1
   200   167   189    2
   201   168   169    2
   202   168   210    1
   203   169   170    1
   204   169   174    1
   205   170   171    1
   206   170   211    1
   207   170   212    1
   208   171   172    2
   209   171   173    1
   210   173   213    1
   211   174   175    2
   212   174   214    1
   213   175   176    1
   214   175   189    1
   215   176   177    2
   216   176   188    1
   217   177   178    1
   218   177   215    1
   219   178   179    1
   220   178   187    1
   221   179   180    1
   222   179   216    1
   223   179   217    1
   224   180   181    1
   225   180   218    1
   226   180   219    1
   227   181   182    1
   228   181   220    1
   229   181   221    1
   230   182   183    1
   231   182   222    1
   232   182   223    1
   233   183   184    1
   234   183   224    1
   235   183   225    1
   236   184   185    1
   237   184   226    1
   238   184   227    1
   239   185   186    1
   240   185   228    1
   241   185   229    1
   242   186   230    1
   243   186   231    1
   244   186   232    1
   245   187   188    2
   246   190   191    2
@<TRIPOS>SUBSTRUCTURE
     1 RES1      232 GROUP             0 ****  ****    0  
