@<TRIPOS>MOLECULE
am_c3_9H2O_c0_0_nunpairedes_0_charge_3 Charge: 3 Unpaired_Electrons: 6 XTB_Unpaired_Electrons: 0 XTB_Charge: 3
   110   116     1     0     0
SMALL
NoCharges
****
Generated from Architector

@<TRIPOS>ATOM
     1 Eu1      -0.0075   -0.0316   -0.1591   Eu        1 RES1   0.0000
     2 C1        2.3801    2.6937   -4.7548   C.3       1 RES1   0.0000
     3 C2        3.4762    1.6358   -4.7948   C.3       1 RES1   0.0000
     4 C3        3.0473    0.3519   -4.0883   C.3       1 RES1   0.0000
     5 C4        4.1200   -0.7349   -4.1240   C.3       1 RES1   0.0000
     6 C5        3.6638   -2.0984   -3.5554   C.3       1 RES1   0.0000
     7 C6        3.3483   -2.0841   -2.0989   C.ar      1 RES1   0.0000
     8 N1        2.4142   -1.2339   -1.7136   N.ar      1 RES1   0.0000
     9 N2        2.0137   -1.1830   -0.4535   N.ar      1 RES1   0.0000
    10 C7        2.4956   -2.0901    0.4045   C.ar      1 RES1   0.0000
    11 C8        1.8168   -2.1558    1.7155   C.ar      1 RES1   0.0000
    12 C9        2.3211   -2.8060    2.8381   C.ar      1 RES1   0.0000
    13 C10       1.5280   -2.8511    3.9778   C.ar      1 RES1   0.0000
    14 C11       0.2433   -2.3270    3.9347   C.ar      1 RES1   0.0000
    15 C12      -0.2121   -1.7366    2.7568   C.ar      1 RES1   0.0000
    16 C13      -1.6272   -1.3602    2.5038   C.ar      1 RES1   0.0000
    17 C14      -2.6704   -1.4797    3.4206   C.ar      1 RES1   0.0000
    18 C15      -3.9751   -1.2878    2.9839   C.ar      1 RES1   0.0000
    19 C16      -4.2238   -1.0270    1.6407   C.ar      1 RES1   0.0000
    20 C17      -3.1289   -0.8930    0.7930   C.ar      1 RES1   0.0000
    21 C18      -3.2150   -0.7326   -0.6719   C.ar      1 RES1   0.0000
    22 N3       -2.1131   -0.2812   -1.2930   N.ar      1 RES1   0.0000
    23 N4       -2.0074   -0.5579   -2.5782   N.ar      1 RES1   0.0000
    24 C19      -2.9781   -1.1057   -3.2799   C.ar      1 RES1   0.0000
    25 C20      -2.5958   -1.5265   -4.6617   C.3       1 RES1   0.0000
    26 C21      -1.4199   -2.5195   -4.6722   C.3       1 RES1   0.0000
    27 C22      -1.7215   -3.8356   -3.9407   C.3       1 RES1   0.0000
    28 C23      -2.8693   -4.6604   -4.5328   C.3       1 RES1   0.0000
    29 C24      -2.6224   -5.1288   -5.9605   C.3       1 RES1   0.0000
    30 C25      -4.2750   -1.2089   -2.6582   C.ar      1 RES1   0.0000
    31 C26      -5.6260   -1.4103   -3.2448   C.3       1 RES1   0.0000
    32 C27      -5.8562   -1.6168   -4.7427   C.3       1 RES1   0.0000
    33 C28      -5.6450   -0.3723   -5.6104   C.3       1 RES1   0.0000
    34 C29      -5.9159   -0.6631   -7.0896   C.3       1 RES1   0.0000
    35 C30      -4.9277   -1.6186   -7.7503   C.3       1 RES1   0.0000
    36 N5       -4.2908   -1.0997   -1.3361   N.ar      1 RES1   0.0000
    37 N6       -1.8696   -1.0132    1.2310   N.ar      1 RES1   0.0000
    38 N7        0.5966   -1.6062    1.6972   N.ar      1 RES1   0.0000
    39 N8        3.4620   -2.9414    0.1044   N.ar      1 RES1   0.0000
    40 C31       3.9606   -2.9421   -1.1224   C.ar      1 RES1   0.0000
    41 C32       5.0442   -3.9126   -1.3935   C.3       1 RES1   0.0000
    42 C33       4.4496   -5.3477   -1.3837   C.3       1 RES1   0.0000
    43 C34       3.4174   -5.5843   -2.4837   C.3       1 RES1   0.0000
    44 C35       2.8762   -7.0126   -2.4317   C.3       1 RES1   0.0000
    45 C36       1.8391   -7.2551   -3.5188   C.3       1 RES1   0.0000
    46 H1        2.7116    3.5871   -5.2729   H         1 RES1   0.0000
    47 H2        2.1411    2.9852   -3.7299   H         1 RES1   0.0000
    48 H3        1.4791    2.3416   -5.2526   H         1 RES1   0.0000
    49 H4        4.3772    2.0281   -4.3252   H         1 RES1   0.0000
    50 H5        3.7157    1.4158   -5.8332   H         1 RES1   0.0000
    51 H6        2.1479   -0.0326   -4.5779   H         1 RES1   0.0000
    52 H7        2.8200    0.5880   -3.0460   H         1 RES1   0.0000
    53 H8        5.0153   -0.3942   -3.5960   H         1 RES1   0.0000
    54 H9        4.4040   -0.9254   -5.1598   H         1 RES1   0.0000
    55 H10       4.4505   -2.8241   -3.7527   H         1 RES1   0.0000
    56 H11       2.7591   -2.4225   -4.0829   H         1 RES1   0.0000
    57 H12       3.2964   -3.2563    2.8065   H         1 RES1   0.0000
    58 H13       1.8967   -3.3246    4.8761   H         1 RES1   0.0000
    59 H14      -0.3962   -2.3549    4.7990   H         1 RES1   0.0000
    60 H15      -2.4715   -1.7000    4.4560   H         1 RES1   0.0000
    61 H16      -4.7873   -1.3724    3.6887   H         1 RES1   0.0000
    62 H17      -5.2171   -0.9072    1.2449   H         1 RES1   0.0000
    63 H18      -2.3034   -0.6270   -5.2139   H         1 RES1   0.0000
    64 H19      -3.4386   -1.9678   -5.1784   H         1 RES1   0.0000
    65 H20      -0.5339   -2.0448   -4.2275   H         1 RES1   0.0000
    66 H21      -1.2036   -2.7375   -5.7182   H         1 RES1   0.0000
    67 H22      -1.9672   -3.6173   -2.8929   H         1 RES1   0.0000
    68 H23      -0.8134   -4.4442   -3.9608   H         1 RES1   0.0000
    69 H24      -3.7955   -4.0873   -4.4859   H         1 RES1   0.0000
    70 H25      -3.0106   -5.5400   -3.9045   H         1 RES1   0.0000
    71 H26      -2.5755   -4.2962   -6.6575   H         1 RES1   0.0000
    72 H27      -3.4340   -5.7803   -6.2730   H         1 RES1   0.0000
    73 H28      -1.6950   -5.6931   -6.0270   H         1 RES1   0.0000
    74 H29      -6.2419   -0.5751   -2.8813   H         1 RES1   0.0000
    75 H30      -6.0236   -2.2831   -2.7074   H         1 RES1   0.0000
    76 H31      -6.8992   -1.9195   -4.8508   H         1 RES1   0.0000
    77 H32      -5.2597   -2.4610   -5.0910   H         1 RES1   0.0000
    78 H33      -4.6331    0.0235   -5.4854   H         1 RES1   0.0000
    79 H34      -6.3385    0.4077   -5.2819   H         1 RES1   0.0000
    80 H35      -5.8862    0.2832   -7.6275   H         1 RES1   0.0000
    81 H36      -6.9248   -1.0649   -7.1941   H         1 RES1   0.0000
    82 H37      -3.9030   -1.2609   -7.6590   H         1 RES1   0.0000
    83 H38      -5.1602   -1.6802   -8.8089   H         1 RES1   0.0000
    84 H39      -4.9964   -2.6256   -7.3450   H         1 RES1   0.0000
    85 H40       5.7795   -3.8480   -0.5840   H         1 RES1   0.0000
    86 H41       5.5429   -3.7281   -2.3459   H         1 RES1   0.0000
    87 H42       3.9989   -5.5326   -0.4061   H         1 RES1   0.0000
    88 H43       5.2761   -6.0448   -1.5151   H         1 RES1   0.0000
    89 H44       3.8674   -5.4145   -3.4645   H         1 RES1   0.0000
    90 H45       2.5850   -4.8787   -2.3705   H         1 RES1   0.0000
    91 H46       2.4306   -7.1982   -1.4535   H         1 RES1   0.0000
    92 H47       3.6982   -7.7157   -2.5591   H         1 RES1   0.0000
    93 H48       0.9912   -6.5801   -3.4071   H         1 RES1   0.0000
    94 H49       1.4662   -8.2725   -3.4666   H         1 RES1   0.0000
    95 H50       2.2748   -7.1073   -4.5031   H         1 RES1   0.0000
    96 O1       -1.3690    2.0910   -0.2569   O.3       1 RES1   0.0000
    97 H51      -2.0925    2.3453    0.3322   H         1 RES1   0.0000
    98 H52      -1.5873    2.4738   -1.1190   H         1 RES1   0.0000
    99 O2        1.9378    1.7023   -0.1488   O.3       1 RES1   0.0000
   100 H53       1.9989    2.6626   -0.0473   H         1 RES1   0.0000
   101 H54       2.8342    1.4080   -0.3660   H         1 RES1   0.0000
   102 O3       -0.0428    1.5001    2.0834   O.3       1 RES1   0.0000
   103 H55      -0.6206    1.4839    2.8581   H         1 RES1   0.0000
   104 H56       0.5503    2.2499    2.2320   H         1 RES1   0.0000
   105 O4       -0.5449   -2.6151   -0.8638   O.3       1 RES1   0.0000
   106 H57      -1.1663   -3.1508   -0.3514   H         1 RES1   0.0000
   107 H58      -0.4872   -3.0551   -1.7266   H         1 RES1   0.0000
   108 O5        0.4244    0.8499   -2.3737   O.3       1 RES1   0.0000
   109 H59       0.8559    1.6367   -2.7463   H         1 RES1   0.0000
   110 H60       0.5010    0.1872   -3.0776   H         1 RES1   0.0000
@<TRIPOS>BOND
     1     1     9    1
     2     1    22    1
     3     1    37    1
     4     1    38    1
     5     1    96    1
     6     1    99    1
     7     1   102    1
     8     1   105    1
     9     1   108    1
    10     2     3    1
    11     2    46    1
    12     2    47    1
    13     2    48    1
    14     3     4    1
    15     3    49    1
    16     3    50    1
    17     4     5    1
    18     4    51    1
    19     4    52    1
    20     5     6    1
    21     5    53    1
    22     5    54    1
    23     6     7    1
    24     6    55    1
    25     6    56    1
    26     7     8    1
    27     7    40    2
    28     8     9    2
    29     9    10    1
    30    10    11    1
    31    10    39    2
    32    11    12    1
    33    11    38    2
    34    12    13    2
    35    12    57    1
    36    13    14    1
    37    13    58    1
    38    14    15    2
    39    14    59    1
    40    15    16    1
    41    15    38    1
    42    16    17    1
    43    16    37    2
    44    17    18    2
    45    17    60    1
    46    18    19    1
    47    18    61    1
    48    19    20    2
    49    19    62    1
    50    20    21    1
    51    20    37    1
    52    21    22    1
    53    21    36    2
    54    22    23    2
    55    23    24    1
    56    24    25    1
    57    24    30    2
    58    25    26    1
    59    25    63    1
    60    25    64    1
    61    26    27    1
    62    26    65    1
    63    26    66    1
    64    27    28    1
    65    27    67    1
    66    27    68    1
    67    28    29    1
    68    28    69    1
    69    28    70    1
    70    29    71    1
    71    29    72    1
    72    29    73    1
    73    30    31    1
    74    30    36    1
    75    31    32    1
    76    31    74    1
    77    31    75    1
    78    32    33    1
    79    32    76    1
    80    32    77    1
    81    33    34    1
    82    33    78    1
    83    33    79    1
    84    34    35    1
    85    34    80    1
    86    34    81    1
    87    35    82    1
    88    35    83    1
    89    35    84    1
    90    39    40    1
    91    40    41    1
    92    41    42    1
    93    41    85    1
    94    41    86    1
    95    42    43    1
    96    42    87    1
    97    42    88    1
    98    43    44    1
    99    43    89    1
   100    43    90    1
   101    44    45    1
   102    44    91    1
   103    44    92    1
   104    45    93    1
   105    45    94    1
   106    45    95    1
   107    96    97    1
   108    96    98    1
   109    99   100    1
   110    99   101    1
   111   102   103    1
   112   102   104    1
   113   105   106    1
   114   105   107    1
   115   108   109    1
   116   108   110    1
@<TRIPOS>SUBSTRUCTURE
     1 RES1      110 GROUP             0 ****  ****    0  
