@<TRIPOS>MOLECULE
am_c3_9H2O_c0_0_nunpairedes_0_charge_3 Charge: 3 Unpaired_Electrons: 6 XTB_Unpaired_Electrons: 0 XTB_Charge: 3
   184   198     1     0     0
SMALL
NoCharges
****
Generated from Architector

@<TRIPOS>ATOM
     1 Eu1      -0.0331    0.0019    0.0041   Eu        1 RES1   0.0000
     2 C1        0.9181   -0.8747   -6.1587   C.3       1 RES1   0.0000
     3 C2        1.3095   -2.1346   -5.3982   C.3       1 RES1   0.0000
     4 C3        0.0798   -2.9302   -4.9690   C.3       1 RES1   0.0000
     5 C4       -0.7757   -2.3870   -3.8720   C.ar      1 RES1   0.0000
     6 N1       -0.2354   -1.6340   -2.9306   N.ar      1 RES1   0.0000
     7 N2       -0.9581   -1.1806   -1.9231   N.ar      1 RES1   0.0000
     8 C5       -2.2695   -1.4263   -1.8973   C.ar      1 RES1   0.0000
     9 C6       -3.0795   -0.8402   -0.7994   C.ar      1 RES1   0.0000
    10 C7       -4.4373   -1.1294   -0.6558   C.ar      1 RES1   0.0000
    11 C8       -5.1447   -0.5326    0.3819   C.ar      1 RES1   0.0000
    12 C9       -4.4829    0.3314    1.2495   C.ar      1 RES1   0.0000
    13 C10      -3.1272    0.5671    1.0343   C.ar      1 RES1   0.0000
    14 C11      -2.3419    1.4784    1.8944   C.ar      1 RES1   0.0000
    15 N3       -1.0122    1.4306    1.7875   N.ar      1 RES1   0.0000
    16 N4       -0.3086    2.3730    2.3732   N.ar      1 RES1   0.0000
    17 C12      -0.8715    3.3175    3.1033   C.ar      1 RES1   0.0000
    18 C13       0.0337    4.4126    3.5565   C.3       1 RES1   0.0000
    19 C14       0.3096    5.4085    2.4113   C.3       1 RES1   0.0000
    20 C15       1.2353    6.5315    2.8544   C.3       1 RES1   0.0000
    21 C16      -2.2608    3.1863    3.4068   C.ar      1 RES1   0.0000
    22 C17      -2.9970    4.0257    4.3817   C.3       1 RES1   0.0000
    23 C18      -4.1402    4.7472    3.6402   C.3       1 RES1   0.0000
    24 C19      -3.6195    5.7024    2.5757   C.3       1 RES1   0.0000
    25 N5       -2.9638    2.2854    2.7431   N.ar      1 RES1   0.0000
    26 N6       -2.4512   -0.0116    0.0404   N.ar      1 RES1   0.0000
    27 N7       -2.8830   -2.1874   -2.7992   N.ar      1 RES1   0.0000
    28 C20      -2.1656   -2.7223   -3.7735   C.ar      1 RES1   0.0000
    29 C21      -2.8743   -3.6025   -4.7426   C.3       1 RES1   0.0000
    30 C22      -4.0404   -2.8506   -5.4219   C.3       1 RES1   0.0000
    31 C23      -3.5567   -1.7065   -6.3033   C.3       1 RES1   0.0000
    32 H1        1.8095   -0.3645   -6.5112   H         1 RES1   0.0000
    33 H2        0.3545   -0.2092   -5.5146   H         1 RES1   0.0000
    34 H3        0.3099   -1.1122   -7.0295   H         1 RES1   0.0000
    35 H4        1.9181   -1.8969   -4.5265   H         1 RES1   0.0000
    36 H5        1.8818   -2.7893   -6.0599   H         1 RES1   0.0000
    37 H6        0.4045   -3.9210   -4.6368   H         1 RES1   0.0000
    38 H7       -0.5265   -3.0787   -5.8617   H         1 RES1   0.0000
    39 H8       -4.8954   -1.8096   -1.3615   H         1 RES1   0.0000
    40 H9       -6.1982   -0.7458    0.5188   H         1 RES1   0.0000
    41 H10      -4.9663    0.8195    2.0846   H         1 RES1   0.0000
    42 H11       0.9782    3.9505    3.8533   H         1 RES1   0.0000
    43 H12      -0.3763    4.9447    4.4135   H         1 RES1   0.0000
    44 H13      -0.6305    5.8407    2.0580   H         1 RES1   0.0000
    45 H14       0.7636    4.8487    1.5902   H         1 RES1   0.0000
    46 H15       0.7923    7.1185    3.6534   H         1 RES1   0.0000
    47 H16       1.4192    7.1927    2.0158   H         1 RES1   0.0000
    48 H17       2.1878    6.1412    3.1974   H         1 RES1   0.0000
    49 H18      -2.3383    4.7467    4.8606   H         1 RES1   0.0000
    50 H19      -3.4298    3.3898    5.1602   H         1 RES1   0.0000
    51 H20      -4.7263    5.3009    4.3706   H         1 RES1   0.0000
    52 H21      -4.7767    3.9863    3.1862   H         1 RES1   0.0000
    53 H22      -2.9760    6.4617    3.0123   H         1 RES1   0.0000
    54 H23      -4.4543    6.2013    2.0954   H         1 RES1   0.0000
    55 H24      -3.0615    5.1633    1.8118   H         1 RES1   0.0000
    56 H25      -3.2915   -4.4653   -4.2129   H         1 RES1   0.0000
    57 H26      -2.1870   -3.9862   -5.4965   H         1 RES1   0.0000
    58 H27      -4.7121   -2.4757   -4.6460   H         1 RES1   0.0000
    59 H28      -4.5916   -3.5647   -6.0340   H         1 RES1   0.0000
    60 H29      -3.0198   -0.9654   -5.7140   H         1 RES1   0.0000
    61 H30      -4.4115   -1.2266   -6.7690   H         1 RES1   0.0000
    62 H31      -2.9049   -2.0657   -7.0967   H         1 RES1   0.0000
    63 C24      -0.9916   -1.3446    5.2734   C.3       1 RES1   0.0000
    64 C25       0.2419   -2.2337    5.1716   C.3       1 RES1   0.0000
    65 C26       1.5333   -1.4257    5.2372   C.3       1 RES1   0.0000
    66 C27       1.8395   -0.5512    4.0707   C.ar      1 RES1   0.0000
    67 N8        1.3048   -0.7941    2.8924   N.ar      1 RES1   0.0000
    68 N9        1.5319    0.0023    1.8644   N.ar      1 RES1   0.0000
    69 C28       2.2085    1.1341    2.0843   C.ar      1 RES1   0.0000
    70 C29       2.1718    2.1802    1.0421   C.ar      1 RES1   0.0000
    71 C30       3.0871    3.2285    1.0020   C.ar      1 RES1   0.0000
    72 C31       2.8771    4.2552    0.0889   C.ar      1 RES1   0.0000
    73 C32       1.7501    4.2233   -0.7273   C.ar      1 RES1   0.0000
    74 C33       0.9074    3.1173   -0.6467   C.ar      1 RES1   0.0000
    75 C34      -0.3502    2.9916   -1.4180   C.ar      1 RES1   0.0000
    76 N10      -0.9450    1.8008   -1.3619   N.ar      1 RES1   0.0000
    77 N11      -2.1014    1.6364   -1.9580   N.ar      1 RES1   0.0000
    78 C35      -2.6873    2.6287   -2.6055   C.ar      1 RES1   0.0000
    79 C36      -4.0046    2.2822   -3.2209   C.3       1 RES1   0.0000
    80 C37      -5.1028    2.0186   -2.1729   C.3       1 RES1   0.0000
    81 C38      -6.4012    1.5589   -2.8209   C.3       1 RES1   0.0000
    82 C39      -1.9994    3.8737   -2.7189   C.ar      1 RES1   0.0000
    83 C40      -2.5084    5.0184   -3.5138   C.3       1 RES1   0.0000
    84 C41      -3.1386    6.1148   -2.6264   C.3       1 RES1   0.0000
    85 C42      -4.3840    5.6644   -1.8783   C.3       1 RES1   0.0000
    86 N12      -0.8362    4.0233   -2.1004   N.ar      1 RES1   0.0000
    87 N13       1.1446    2.1078    0.1931   N.ar      1 RES1   0.0000
    88 N14       2.8936    1.3694    3.1978   N.ar      1 RES1   0.0000
    89 C43       2.8003    0.5066    4.1876   C.ar      1 RES1   0.0000
    90 C44       3.6385    0.7255    5.3967   C.3       1 RES1   0.0000
    91 C45       3.1895    2.0333    6.0868   C.3       1 RES1   0.0000
    92 C46       1.7423    1.9905    6.5637   C.3       1 RES1   0.0000
    93 H32      -1.8824   -1.9610    5.3102   H         1 RES1   0.0000
    94 H33      -1.0648   -0.6798    4.4141   H         1 RES1   0.0000
    95 H34      -0.9643   -0.7474    6.1823   H         1 RES1   0.0000
    96 H35       0.2306   -2.8228    4.2526   H         1 RES1   0.0000
    97 H36       0.2640   -2.9156    6.0231   H         1 RES1   0.0000
    98 H37       2.3878   -2.1040    5.3450   H         1 RES1   0.0000
    99 H38       1.5055   -0.8076    6.1360   H         1 RES1   0.0000
   100 H39       3.9208    3.2136    1.6891   H         1 RES1   0.0000
   101 H40       3.5684    5.0858    0.0334   H         1 RES1   0.0000
   102 H41       1.5047    5.0109   -1.4250   H         1 RES1   0.0000
   103 H42      -3.8464    1.3603   -3.7884   H         1 RES1   0.0000
   104 H43      -4.3408    3.0544   -3.9097   H         1 RES1   0.0000
   105 H44      -5.2992    2.9308   -1.6054   H         1 RES1   0.0000
   106 H45      -4.7357    1.2528   -1.4875   H         1 RES1   0.0000
   107 H46      -6.7977    2.3114   -3.4956   H         1 RES1   0.0000
   108 H47      -7.1419    1.3805   -2.0500   H         1 RES1   0.0000
   109 H48      -6.2609    0.6383   -3.3776   H         1 RES1   0.0000
   110 H49      -3.2480    4.6744   -4.2357   H         1 RES1   0.0000
   111 H50      -1.6685    5.4670   -4.0504   H         1 RES1   0.0000
   112 H51      -3.4021    6.9353   -3.2922   H         1 RES1   0.0000
   113 H52      -2.3872    6.4741   -1.9217   H         1 RES1   0.0000
   114 H53      -5.1481    5.3207   -2.5695   H         1 RES1   0.0000
   115 H54      -4.7916    6.5047   -1.3249   H         1 RES1   0.0000
   116 H55      -4.1566    4.8706   -1.1693   H         1 RES1   0.0000
   117 H56       4.6916    0.8312    5.1154   H         1 RES1   0.0000
   118 H57       3.5527   -0.1154    6.0825   H         1 RES1   0.0000
   119 H58       3.3254    2.8488    5.3741   H         1 RES1   0.0000
   120 H59       3.8425    2.2096    6.9407   H         1 RES1   0.0000
   121 H60       1.0610    1.7963    5.7361   H         1 RES1   0.0000
   122 H61       1.4777    2.9471    7.0036   H         1 RES1   0.0000
   123 H62       1.6019    1.2280    7.3262   H         1 RES1   0.0000
   124 C47      -0.2341    2.2467   -5.0559   C.3       1 RES1   0.0000
   125 C48       1.0773    2.9560   -4.7352   C.3       1 RES1   0.0000
   126 C49       2.3155    2.0598   -4.7817   C.3       1 RES1   0.0000
   127 C50       2.4499    1.0205   -3.7214   C.ar      1 RES1   0.0000
   128 N15       1.6937    1.0855   -2.6475   N.ar      1 RES1   0.0000
   129 N16       1.7415    0.1586   -1.7120   N.ar      1 RES1   0.0000
   130 C51       2.4698   -0.9336   -1.9543   C.ar      1 RES1   0.0000
   131 C52       2.2936   -2.0938   -1.0577   C.ar      1 RES1   0.0000
   132 C53       3.2073   -3.1459   -1.0598   C.ar      1 RES1   0.0000
   133 C54       2.9596   -4.2466   -0.2515   C.ar      1 RES1   0.0000
   134 C55       1.8245   -4.2566    0.5512   C.ar      1 RES1   0.0000
   135 C56       0.9832   -3.1469    0.5250   C.ar      1 RES1   0.0000
   136 C57      -0.2398   -3.0695    1.3598   C.ar      1 RES1   0.0000
   137 N17      -0.8687   -1.8945    1.3642   N.ar      1 RES1   0.0000
   138 N18      -1.9930   -1.7806    2.0324   N.ar      1 RES1   0.0000
   139 C58      -2.5056   -2.8043    2.6901   C.ar      1 RES1   0.0000
   140 C59      -3.8200   -2.5253    3.3390   C.3       1 RES1   0.0000
   141 C60      -5.0163   -3.1983    2.6348   C.3       1 RES1   0.0000
   142 C61      -6.3408   -2.6961    3.1942   C.3       1 RES1   0.0000
   143 C62      -1.7767   -4.0301    2.7468   C.ar      1 RES1   0.0000
   144 C63      -2.2042   -5.1630    3.6085   C.3       1 RES1   0.0000
   145 C64      -2.4293   -6.5072    2.8875   C.3       1 RES1   0.0000
   146 C65      -3.6918   -6.5311    2.0384   C.3       1 RES1   0.0000
   147 N19      -0.6492   -4.1284    2.0545   N.ar      1 RES1   0.0000
   148 N20       1.2156   -2.0894   -0.2647   N.ar      1 RES1   0.0000
   149 N21       3.3651   -1.0026   -2.9345   N.ar      1 RES1   0.0000
   150 C66       3.4609   -0.0029   -3.7890   C.ar      1 RES1   0.0000
   151 C67       4.6153    0.0317   -4.7314   C.3       1 RES1   0.0000
   152 C68       5.0110   -1.3260   -5.3674   C.3       1 RES1   0.0000
   153 C69       4.5915   -1.4343   -6.8299   C.3       1 RES1   0.0000
   154 H63      -1.0433    2.9709   -5.0405   H         1 RES1   0.0000
   155 H64      -0.4521    1.4699   -4.3228   H         1 RES1   0.0000
   156 H65      -0.2099    1.8085   -6.0506   H         1 RES1   0.0000
   157 H66       1.0175    3.4323   -3.7547   H         1 RES1   0.0000
   158 H67       1.2439    3.7262   -5.4893   H         1 RES1   0.0000
   159 H68       3.2094    2.6902   -4.7114   H         1 RES1   0.0000
   160 H69       2.3689    1.5735   -5.7573   H         1 RES1   0.0000
   161 H70       4.0793   -3.0648   -1.6924   H         1 RES1   0.0000
   162 H71       3.6429   -5.0850   -0.2485   H         1 RES1   0.0000
   163 H72       1.5787   -5.0842    1.2023   H         1 RES1   0.0000
   164 H73      -3.9410   -1.4375    3.3234   H         1 RES1   0.0000
   165 H74      -3.8050   -2.8599    4.3769   H         1 RES1   0.0000
   166 H75      -4.9706   -4.2798    2.7755   H         1 RES1   0.0000
   167 H76      -4.9626   -2.9893    1.5625   H         1 RES1   0.0000
   168 H77      -6.4305   -2.9358    4.2489   H         1 RES1   0.0000
   169 H78      -7.1571   -3.1818    2.6720   H         1 RES1   0.0000
   170 H79      -6.4532   -1.6228    3.0724   H         1 RES1   0.0000
   171 H80      -3.1142   -4.8890    4.1373   H         1 RES1   0.0000
   172 H81      -1.4142   -5.3179    4.3502   H         1 RES1   0.0000
   173 H82      -2.5196   -7.2693    3.6621   H         1 RES1   0.0000
   174 H83      -1.5554   -6.7355    2.2772   H         1 RES1   0.0000
   175 H84      -4.5790   -6.4109    2.6562   H         1 RES1   0.0000
   176 H85      -3.7695   -7.4916    1.5394   H         1 RES1   0.0000
   177 H86      -3.6724   -5.7525    1.2793   H         1 RES1   0.0000
   178 H87       5.4752    0.4122   -4.1655   H         1 RES1   0.0000
   179 H88       4.4181    0.7609   -5.5145   H         1 RES1   0.0000
   180 H89       4.5535   -2.1330   -4.7947   H         1 RES1   0.0000
   181 H90       6.0942   -1.4428   -5.3097   H         1 RES1   0.0000
   182 H91       3.5147   -1.3661   -6.9411   H         1 RES1   0.0000
   183 H92       4.9114   -2.3931   -7.2267   H         1 RES1   0.0000
   184 H93       5.0557   -0.6619   -7.4366   H         1 RES1   0.0000
@<TRIPOS>BOND
     1     1     7    1
     2     1    15    1
     3     1    26    1
     4     1    68    1
     5     1    76    1
     6     1    87    1
     7     1   129    1
     8     1   137    1
     9     1   148    1
    10     2     3    1
    11     2    32    1
    12     2    33    1
    13     2    34    1
    14     3     4    1
    15     3    35    1
    16     3    36    1
    17     4     5    1
    18     4    37    1
    19     4    38    1
    20     5     6    1
    21     5    28    2
    22     6     7    2
    23     7     8    1
    24     8     9    1
    25     8    27    2
    26     9    10    1
    27     9    26    2
    28    10    11    2
    29    10    39    1
    30    11    12    1
    31    11    40    1
    32    12    13    2
    33    12    41    1
    34    13    14    1
    35    13    26    1
    36    14    15    1
    37    14    25    2
    38    15    16    2
    39    16    17    1
    40    17    18    1
    41    17    21    2
    42    18    19    1
    43    18    42    1
    44    18    43    1
    45    19    20    1
    46    19    44    1
    47    19    45    1
    48    20    46    1
    49    20    47    1
    50    20    48    1
    51    21    22    1
    52    21    25    1
    53    22    23    1
    54    22    49    1
    55    22    50    1
    56    23    24    1
    57    23    51    1
    58    23    52    1
    59    24    53    1
    60    24    54    1
    61    24    55    1
    62    27    28    1
    63    28    29    1
    64    29    30    1
    65    29    56    1
    66    29    57    1
    67    30    31    1
    68    30    58    1
    69    30    59    1
    70    31    60    1
    71    31    61    1
    72    31    62    1
    73    63    64    1
    74    63    93    1
    75    63    94    1
    76    63    95    1
    77    64    65    1
    78    64    96    1
    79    64    97    1
    80    65    66    1
    81    65    98    1
    82    65    99    1
    83    66    67    1
    84    66    89    2
    85    67    68    2
    86    68    69    1
    87    69    70    1
    88    69    88    2
    89    70    71    1
    90    70    87    2
    91    71    72    2
    92    71   100    1
    93    72    73    1
    94    72   101    1
    95    73    74    2
    96    73   102    1
    97    74    75    1
    98    74    87    1
    99    75    76    1
   100    75    86    2
   101    76    77    2
   102    77    78    1
   103    78    79    1
   104    78    82    2
   105    79    80    1
   106    79   103    1
   107    79   104    1
   108    80    81    1
   109    80   105    1
   110    80   106    1
   111    81   107    1
   112    81   108    1
   113    81   109    1
   114    82    83    1
   115    82    86    1
   116    83    84    1
   117    83   110    1
   118    83   111    1
   119    84    85    1
   120    84   112    1
   121    84   113    1
   122    85   114    1
   123    85   115    1
   124    85   116    1
   125    88    89    1
   126    89    90    1
   127    90    91    1
   128    90   117    1
   129    90   118    1
   130    91    92    1
   131    91   119    1
   132    91   120    1
   133    92   121    1
   134    92   122    1
   135    92   123    1
   136   124   125    1
   137   124   154    1
   138   124   155    1
   139   124   156    1
   140   125   126    1
   141   125   157    1
   142   125   158    1
   143   126   127    1
   144   126   159    1
   145   126   160    1
   146   127   128    1
   147   127   150    2
   148   128   129    2
   149   129   130    1
   150   130   131    1
   151   130   149    2
   152   131   132    1
   153   131   148    2
   154   132   133    2
   155   132   161    1
   156   133   134    1
   157   133   162    1
   158   134   135    2
   159   134   163    1
   160   135   136    1
   161   135   148    1
   162   136   137    1
   163   136   147    2
   164   137   138    2
   165   138   139    1
   166   139   140    1
   167   139   143    2
   168   140   141    1
   169   140   164    1
   170   140   165    1
   171   141   142    1
   172   141   166    1
   173   141   167    1
   174   142   168    1
   175   142   169    1
   176   142   170    1
   177   143   144    1
   178   143   147    1
   179   144   145    1
   180   144   171    1
   181   144   172    1
   182   145   146    1
   183   145   173    1
   184   145   174    1
   185   146   175    1
   186   146   176    1
   187   146   177    1
   188   149   150    1
   189   150   151    1
   190   151   152    1
   191   151   178    1
   192   151   179    1
   193   152   153    1
   194   152   180    1
   195   152   181    1
   196   153   182    1
   197   153   183    1
   198   153   184    1
@<TRIPOS>SUBSTRUCTURE
     1 RES1      184 GROUP             0 ****  ****    0  
