@<TRIPOS>MOLECULE
am_c3_9H2O_c0_0_nunpairedes_0_charge_1 Charge: 1 Unpaired_Electrons: 1 XTB_Unpaired_Electrons: 0 XTB_Charge: 1
   122   135     1     0     0
SMALL
NoCharges
****
Generated from Architector

@<TRIPOS>ATOM
     1 Ce1      -0.0004   -0.3735   -0.4059   Ce        1 RES1   0.0000
     2 C1       -3.7087    1.3786    1.9418   C.3       1 RES1   0.0000
     3 C2       -4.3985    2.7203    1.7122   C.3       1 RES1   0.0000
     4 C3       -3.9082    3.4453    0.4599   C.3       1 RES1   0.0000
     5 C4       -4.3079    2.7259   -0.8288   C.3       1 RES1   0.0000
     6 C5       -4.0961    3.5616   -2.0974   C.3       1 RES1   0.0000
     7 C6       -2.7401    3.3501   -2.7725   C.3       1 RES1   0.0000
     8 N1       -1.6456    3.7378   -1.8900   N.ar      1 RES1   0.0000
     9 C7       -1.3731    5.0646   -1.6361   C.ar      1 RES1   0.0000
    10 C8       -2.0923    6.0991   -2.4206   C.ar      1 RES1   0.0000
    11 C9       -2.9633    6.9842   -1.7908   C.ar      1 RES1   0.0000
    12 C10      -3.6361    7.9468   -2.5205   C.ar      1 RES1   0.0000
    13 C11      -3.4437    8.0502   -3.8873   C.ar      1 RES1   0.0000
    14 C12      -2.5597    7.1927   -4.5176   C.ar      1 RES1   0.0000
    15 C13      -1.8874    6.2262   -3.7926   C.ar      1 RES1   0.0000
    16 C14      -0.4548    5.4480   -0.6947   C.ar      1 RES1   0.0000
    17 C15      -0.1397    6.8798   -0.5276   C.ar      1 RES1   0.0000
    18 C16       0.4882    7.5601   -1.5641   C.ar      1 RES1   0.0000
    19 C17       0.7640    8.9089   -1.4419   C.ar      1 RES1   0.0000
    20 C18       0.4088    9.5845   -0.2854   C.ar      1 RES1   0.0000
    21 C19      -0.2024    8.9063    0.7566   C.ar      1 RES1   0.0000
    22 C20      -0.4700    7.5542    0.6408   C.ar      1 RES1   0.0000
    23 C21       0.2267    4.4733    0.0924   C.ar      1 RES1   0.0000
    24 C22       1.2019    4.7426    1.0656   C.ar      1 RES1   0.0000
    25 C23       1.8193    3.6784    1.7159   C.ar      1 RES1   0.0000
    26 C24       2.8571    3.8142    2.6964   C.ar      1 RES1   0.0000
    27 C25       3.4315    2.7405    3.2897   C.ar      1 RES1   0.0000
    28 C26       3.0436    1.3949    2.9690   C.ar      1 RES1   0.0000
    29 C27       3.6001    0.2445    3.5248   C.ar      1 RES1   0.0000
    30 C28       3.1413   -1.0159    3.1061   C.ar      1 RES1   0.0000
    31 C29       3.5864   -2.2740    3.6116   C.ar      1 RES1   0.0000
    32 C30       4.5820   -2.3516    4.7001   C.ar      1 RES1   0.0000
    33 C31       4.1895   -2.8127    5.9515   C.ar      1 RES1   0.0000
    34 C32       5.1163   -2.9394    6.9687   C.ar      1 RES1   0.0000
    35 C33       6.4430   -2.6139    6.7387   C.ar      1 RES1   0.0000
    36 C34       6.8368   -2.1429    5.4969   C.ar      1 RES1   0.0000
    37 C35       5.9086   -2.0046    4.4812   C.ar      1 RES1   0.0000
    38 C36       3.0697   -3.4405    3.1115   C.ar      1 RES1   0.0000
    39 C37       3.5380   -4.7499    3.6166   C.ar      1 RES1   0.0000
    40 C38       4.8105   -5.2130    3.3013   C.ar      1 RES1   0.0000
    41 C39       5.2284   -6.4523    3.7511   C.ar      1 RES1   0.0000
    42 C40       4.3832   -7.2334    4.5217   C.ar      1 RES1   0.0000
    43 C41       3.1206   -6.7703    4.8530   C.ar      1 RES1   0.0000
    44 C42       2.6983   -5.5354    4.3995   C.ar      1 RES1   0.0000
    45 N2        2.1177   -3.4559    2.1225   N.ar      1 RES1   0.0000
    46 C43       1.6343   -4.6758    1.4903   C.3       1 RES1   0.0000
    47 C44       0.1926   -5.0008    1.8842   C.3       1 RES1   0.0000
    48 C45      -0.3405   -6.2082    1.1127   C.3       1 RES1   0.0000
    49 C46      -0.3719   -6.0340   -0.4070   C.3       1 RES1   0.0000
    50 C47      -1.2283   -4.8606   -0.8862   C.3       1 RES1   0.0000
    51 C48      -1.3785   -4.8946   -2.4028   C.3       1 RES1   0.0000
    52 C49       1.5884   -2.3105    1.6153   C.ar      1 RES1   0.0000
    53 O1        0.6942   -2.3289    0.7537   O.2       1 RES1   0.0000
    54 C50       2.1251   -1.0537    2.1236   C.ar      1 RES1   0.0000
    55 N3        1.5783    0.0364    1.5981   N.ar      1 RES1   0.0000
    56 C51       2.0092    1.2243    2.0094   C.ar      1 RES1   0.0000
    57 C52       1.3812    2.3656    1.3994   C.ar      1 RES1   0.0000
    58 N4        0.4258    2.1033    0.5143   N.ar      1 RES1   0.0000
    59 C53      -0.0921    3.1203   -0.1636   C.ar      1 RES1   0.0000
    60 C54      -1.0035    2.7349   -1.2345   C.ar      1 RES1   0.0000
    61 O2       -1.1576    1.5301   -1.5130   O.2       1 RES1   0.0000
    62 H1       -3.9959    0.9753    2.9130   H         1 RES1   0.0000
    63 H2       -2.6213    1.4951    1.9036   H         1 RES1   0.0000
    64 H3       -3.9978    0.6633    1.1772   H         1 RES1   0.0000
    65 H4       -4.2156    3.3663    2.5719   H         1 RES1   0.0000
    66 H5       -5.4769    2.5721    1.6362   H         1 RES1   0.0000
    67 H6       -2.8234    3.5595    0.5282   H         1 RES1   0.0000
    68 H7       -4.3492    4.4459    0.4451   H         1 RES1   0.0000
    69 H8       -5.3701    2.4892   -0.7606   H         1 RES1   0.0000
    70 H9       -3.7722    1.7813   -0.9239   H         1 RES1   0.0000
    71 H10      -4.2184    4.6209   -1.8663   H         1 RES1   0.0000
    72 H11      -4.8517    3.3010   -2.8386   H         1 RES1   0.0000
    73 H12      -2.6849    3.9272   -3.6946   H         1 RES1   0.0000
    74 H13      -2.6021    2.2936   -3.0077   H         1 RES1   0.0000
    75 H14      -3.1249    6.9138   -0.7268   H         1 RES1   0.0000
    76 H15      -4.3195    8.6158   -2.0219   H         1 RES1   0.0000
    77 H16      -3.9800    8.7933   -4.4554   H         1 RES1   0.0000
    78 H17      -2.3951    7.2703   -5.5809   H         1 RES1   0.0000
    79 H18      -1.1861    5.5821   -4.2997   H         1 RES1   0.0000
    80 H19       0.7576    7.0204   -2.4595   H         1 RES1   0.0000
    81 H20       1.2436    9.4353   -2.2539   H         1 RES1   0.0000
    82 H21       0.5996   10.6426   -0.1987   H         1 RES1   0.0000
    83 H22      -0.4853    9.4302    1.6574   H         1 RES1   0.0000
    84 H23      -0.9607    7.0259    1.4455   H         1 RES1   0.0000
    85 H24       1.4887    5.7588    1.2971   H         1 RES1   0.0000
    86 H25       3.1737    4.8144    2.9528   H         1 RES1   0.0000
    87 H26       4.2088    2.8853    4.0253   H         1 RES1   0.0000
    88 H27       4.3794    0.3103    4.2703   H         1 RES1   0.0000
    89 H28       3.1530   -3.0681    6.1149   H         1 RES1   0.0000
    90 H29       4.8037   -3.2963    7.9392   H         1 RES1   0.0000
    91 H30       7.1726   -2.7345    7.5227   H         1 RES1   0.0000
    92 H31       7.8690   -1.8864    5.3131   H         1 RES1   0.0000
    93 H32       6.2156   -1.6519    3.5075   H         1 RES1   0.0000
    94 H33       5.4580   -4.6075    2.6880   H         1 RES1   0.0000
    95 H34       6.2111   -6.8164    3.4912   H         1 RES1   0.0000
    96 H35       4.7054   -8.2058    4.8589   H         1 RES1   0.0000
    97 H36       2.4585   -7.3729    5.4557   H         1 RES1   0.0000
    98 H37       1.7153   -5.1753    4.6569   H         1 RES1   0.0000
    99 H38       2.2939   -5.5060    1.7347   H         1 RES1   0.0000
   100 H39       1.6678   -4.4813    0.4162   H         1 RES1   0.0000
   101 H40      -0.4406   -4.1372    1.6863   H         1 RES1   0.0000
   102 H41       0.1448   -5.2165    2.9529   H         1 RES1   0.0000
   103 H42      -1.3555   -6.4103    1.4624   H         1 RES1   0.0000
   104 H43       0.2717   -7.0794    1.3579   H         1 RES1   0.0000
   105 H44      -0.7792   -6.9539   -0.8329   H         1 RES1   0.0000
   106 H45       0.6421   -5.9301   -0.7968   H         1 RES1   0.0000
   107 H46      -0.7751   -3.9039   -0.5925   H         1 RES1   0.0000
   108 H47      -2.2159   -4.9294   -0.4218   H         1 RES1   0.0000
   109 H48      -0.4094   -4.7766   -2.8807   H         1 RES1   0.0000
   110 H49      -2.0284   -4.0932   -2.7426   H         1 RES1   0.0000
   111 H50      -1.8069   -5.8430   -2.7219   H         1 RES1   0.0000
   112 N5       -2.2456   -0.8909   -1.3391   N.3       1 RES1   0.0000
   113 O3       -3.3363   -0.9632   -1.8131   O.2       1 RES1   0.0000
   114 O4       -2.1076   -0.5739   -0.1371   O.co2     1 RES1   0.0000
   115 O5       -1.2245   -1.1478   -1.9790   O.co2     1 RES1   0.0000
   116 N6        1.5451   -0.3585   -2.1539   N.3       1 RES1   0.0000
   117 O6        1.5212   -0.1766   -3.3311   O.2       1 RES1   0.0000
   118 O7        1.6641    0.5978   -1.3579   O.co2     1 RES1   0.0000
   119 O8        1.4808   -1.4780   -1.6449   O.co2     1 RES1   0.0000
   120 O9       -1.1073   -0.9642    2.2806   O.3       1 RES1   0.0000
   121 H51      -1.0874   -0.5731    3.1587   H         1 RES1   0.0000
   122 H52      -2.0299   -0.9819    1.9985   H         1 RES1   0.0000
@<TRIPOS>BOND
     1     1    53    1
     2     1    55    1
     3     1    58    1
     4     1    61    1
     5     1   114    1
     6     1   115    1
     7     1   118    1
     8     1   119    1
     9     1   120    1
    10     2     3    1
    11     2    62    1
    12     2    63    1
    13     2    64    1
    14     3     4    1
    15     3    65    1
    16     3    66    1
    17     4     5    1
    18     4    67    1
    19     4    68    1
    20     5     6    1
    21     5    69    1
    22     5    70    1
    23     6     7    1
    24     6    71    1
    25     6    72    1
    26     7     8    1
    27     7    73    1
    28     7    74    1
    29     8     9    1
    30     8    60    1
    31     9    10    1
    32     9    16    2
    33    10    11    1
    34    10    15    2
    35    11    12    2
    36    11    75    1
    37    12    13    1
    38    12    76    1
    39    13    14    2
    40    13    77    1
    41    14    15    1
    42    14    78    1
    43    15    79    1
    44    16    17    1
    45    16    23    1
    46    17    18    1
    47    17    22    2
    48    18    19    2
    49    18    80    1
    50    19    20    1
    51    19    81    1
    52    20    21    2
    53    20    82    1
    54    21    22    1
    55    21    83    1
    56    22    84    1
    57    23    24    1
    58    23    59    2
    59    24    25    2
    60    24    85    1
    61    25    26    1
    62    25    57    1
    63    26    27    2
    64    26    86    1
    65    27    28    1
    66    27    87    1
    67    28    29    1
    68    28    56    2
    69    29    30    2
    70    29    88    1
    71    30    31    1
    72    30    54    1
    73    31    32    1
    74    31    38    2
    75    32    33    1
    76    32    37    2
    77    33    34    2
    78    33    89    1
    79    34    35    1
    80    34    90    1
    81    35    36    2
    82    35    91    1
    83    36    37    1
    84    36    92    1
    85    37    93    1
    86    38    39    1
    87    38    45    1
    88    39    40    1
    89    39    44    2
    90    40    41    2
    91    40    94    1
    92    41    42    1
    93    41    95    1
    94    42    43    2
    95    42    96    1
    96    43    44    1
    97    43    97    1
    98    44    98    1
    99    45    46    1
   100    45    52    1
   101    46    47    1
   102    46    99    1
   103    46   100    1
   104    47    48    1
   105    47   101    1
   106    47   102    1
   107    48    49    1
   108    48   103    1
   109    48   104    1
   110    49    50    1
   111    49   105    1
   112    49   106    1
   113    50    51    1
   114    50   107    1
   115    50   108    1
   116    51   109    1
   117    51   110    1
   118    51   111    1
   119    52    53    2
   120    52    54    1
   121    54    55    2
   122    55    56    1
   123    56    57    1
   124    57    58    2
   125    58    59    1
   126    59    60    1
   127    60    61    2
   128   112   113    2
   129   112   114    1
   130   112   115    1
   131   116   117    2
   132   116   118    1
   133   116   119    1
   134   120   121    1
   135   120   122    1
@<TRIPOS>SUBSTRUCTURE
     1 RES1      122 GROUP             0 ****  ****    0  
