@<TRIPOS>MOLECULE
am_c3_9H2O_c0_0_nunpairedes_0_charge_3 Charge: 3 Unpaired_Electrons: 6 XTB_Unpaired_Electrons: 0 XTB_Charge: 3
   166   183     1     0     0
SMALL
NoCharges
****
Generated from Architector

@<TRIPOS>ATOM
     1 Eu1       0.0847    0.2008   -0.0171   Eu        1 RES1   0.0000
     2 S1       -1.4755    2.0423    1.6967   S.3       1 RES1   0.0000
     3 P1       -3.4078    1.7346    1.3866   P.3       1 RES1   0.0000
     4 C1       -3.5078   -0.1399    1.3972   C.3       1 RES1   0.0000
     5 O1       -2.7975   -0.5640    0.2290   O.3       1 RES1   0.0000
     6 C2       -3.6353   -1.1327   -0.7676   C.3       1 RES1   0.0000
     7 P2       -2.6208   -1.9687   -2.1023   P.3       1 RES1   0.0000
     8 S2       -0.9172   -1.0229   -2.4331   S.3       1 RES1   0.0000
     9 C3       -3.7421   -1.9045   -3.5313   C.ar      1 RES1   0.0000
    10 C4       -3.3614   -1.2694   -4.7052   C.ar      1 RES1   0.0000
    11 C5       -4.2519   -1.2072   -5.7658   C.ar      1 RES1   0.0000
    12 C6       -5.5108   -1.7777   -5.6524   C.ar      1 RES1   0.0000
    13 C7       -5.8716   -2.4496   -4.4913   C.ar      1 RES1   0.0000
    14 C8       -4.9882   -2.5218   -3.4303   C.ar      1 RES1   0.0000
    15 C9       -2.4529   -3.7498   -1.7453   C.ar      1 RES1   0.0000
    16 C10      -2.9032   -4.4098   -0.6100   C.ar      1 RES1   0.0000
    17 C11      -2.8056   -5.7891   -0.5461   C.ar      1 RES1   0.0000
    18 C12      -2.2763   -6.5120   -1.6031   C.ar      1 RES1   0.0000
    19 C13      -1.8018   -5.8490   -2.7243   C.ar      1 RES1   0.0000
    20 C14      -1.8901   -4.4713   -2.7959   C.ar      1 RES1   0.0000
    21 C15      -4.3438    2.5803    2.6916   C.ar      1 RES1   0.0000
    22 C16      -4.4481    2.1097    3.9963   C.ar      1 RES1   0.0000
    23 C17      -5.0277    2.9151    4.9636   C.ar      1 RES1   0.0000
    24 C18      -5.4845    4.1857    4.6416   C.ar      1 RES1   0.0000
    25 C19      -5.3681    4.6590    3.3444   C.ar      1 RES1   0.0000
    26 C20      -4.7959    3.8606    2.3715   C.ar      1 RES1   0.0000
    27 C21      -4.2537    2.2089   -0.1728   C.ar      1 RES1   0.0000
    28 C22      -3.8449    3.2494   -0.9987   C.ar      1 RES1   0.0000
    29 C23      -4.5502    3.5264   -2.1613   C.ar      1 RES1   0.0000
    30 C24      -5.6632    2.7775   -2.5038   C.ar      1 RES1   0.0000
    31 C25      -6.1083    1.7831   -1.6503   C.ar      1 RES1   0.0000
    32 C26      -5.4260    1.5163   -0.4803   C.ar      1 RES1   0.0000
    33 H1       -4.5315   -0.5175    1.4071   H         1 RES1   0.0000
    34 H2       -2.9703   -0.5179    2.2832   H         1 RES1   0.0000
    35 H3       -4.2295   -0.3426   -1.2670   H         1 RES1   0.0000
    36 H4       -4.3161   -1.8843   -0.3327   H         1 RES1   0.0000
    37 H5       -2.3750   -0.8270   -4.7728   H         1 RES1   0.0000
    38 H6       -3.9611   -0.7140   -6.6811   H         1 RES1   0.0000
    39 H7       -6.2107   -1.7095   -6.4719   H         1 RES1   0.0000
    40 H8       -6.8389   -2.9206   -4.4171   H         1 RES1   0.0000
    41 H9       -5.2551   -3.0569   -2.5319   H         1 RES1   0.0000
    42 H10      -3.3228   -3.8662    0.2193   H         1 RES1   0.0000
    43 H11      -3.1628   -6.3126    0.3264   H         1 RES1   0.0000
    44 H12      -2.2478   -7.5911   -1.5643   H         1 RES1   0.0000
    45 H13      -1.3775   -6.4038   -3.5475   H         1 RES1   0.0000
    46 H14      -1.5403   -3.9420   -3.6706   H         1 RES1   0.0000
    47 H15      -4.0862    1.1224    4.2480   H         1 RES1   0.0000
    48 H16      -5.1286    2.5473    5.9744   H         1 RES1   0.0000
    49 H17      -5.9395    4.8031    5.4010   H         1 RES1   0.0000
    50 H18      -5.7307    5.6429    3.0838   H         1 RES1   0.0000
    51 H19      -4.7108    4.2291    1.3576   H         1 RES1   0.0000
    52 H20      -2.9773    3.8440   -0.7459   H         1 RES1   0.0000
    53 H21      -4.2251    4.3278   -2.8043   H         1 RES1   0.0000
    54 H22      -6.2007    2.9809   -3.4153   H         1 RES1   0.0000
    55 H23      -6.9872    1.2064   -1.8936   H         1 RES1   0.0000
    56 H24      -5.8213    0.7836    0.2096   H         1 RES1   0.0000
    57 S3       -0.8176    2.5026   -1.4604   S.3       1 RES1   0.0000
    58 P3        0.1997    4.1078   -0.8480   P.3       1 RES1   0.0000
    59 C27       1.9292    3.4429   -0.5677   C.3       1 RES1   0.0000
    60 O2        1.8988    2.3554    0.3776   O.3       1 RES1   0.0000
    61 C28       2.3739    2.7053    1.6666   C.3       1 RES1   0.0000
    62 P4        2.5607    1.2293    2.8183   P.3       1 RES1   0.0000
    63 S4        0.9667    0.0641    2.7529   S.3       1 RES1   0.0000
    64 C29       2.9159    2.1209    4.3590   C.ar      1 RES1   0.0000
    65 C30       2.0322    2.2056    5.4253   C.ar      1 RES1   0.0000
    66 C31       2.3862    2.9582    6.5376   C.ar      1 RES1   0.0000
    67 C32       3.6082    3.6128    6.5837   C.ar      1 RES1   0.0000
    68 C33       4.4976    3.5016    5.5262   C.ar      1 RES1   0.0000
    69 C34       4.1591    2.7536    4.4181   C.ar      1 RES1   0.0000
    70 C35       4.0403    0.1673    2.6545   C.ar      1 RES1   0.0000
    71 C36       5.0570    0.1380    1.7173   C.ar      1 RES1   0.0000
    72 C37       6.0459   -0.8345    1.8121   C.ar      1 RES1   0.0000
    73 C38       6.0430   -1.7555    2.8463   C.ar      1 RES1   0.0000
    74 C39       5.0395   -1.7057    3.8047   C.ar      1 RES1   0.0000
    75 C40       4.0438   -0.7573    3.7033   C.ar      1 RES1   0.0000
    76 C41       0.0548    5.2920   -2.2101   C.ar      1 RES1   0.0000
    77 C42       0.7093    5.1503   -3.4278   C.ar      1 RES1   0.0000
    78 C43       0.3241    5.9425   -4.4977   C.ar      1 RES1   0.0000
    79 C44      -0.7133    6.8548   -4.3643   C.ar      1 RES1   0.0000
    80 C45      -1.3614    6.9982   -3.1477   C.ar      1 RES1   0.0000
    81 C46      -0.9820    6.2149   -2.0739   C.ar      1 RES1   0.0000
    82 C47      -0.0511    5.1657    0.6432   C.ar      1 RES1   0.0000
    83 C48      -1.1653    5.2201    1.4645   C.ar      1 RES1   0.0000
    84 C49      -1.1790    6.0963    2.5390   C.ar      1 RES1   0.0000
    85 C50      -0.1007    6.9258    2.7906   C.ar      1 RES1   0.0000
    86 C51       0.9851    6.9172    1.9311   C.ar      1 RES1   0.0000
    87 C52       1.0016    6.0592    0.8512   C.ar      1 RES1   0.0000
    88 H25       2.6147    4.2205   -0.2294   H         1 RES1   0.0000
    89 H26       2.2645    3.0309   -1.5303   H         1 RES1   0.0000
    90 H27       1.6705    3.3774    2.1895   H         1 RES1   0.0000
    91 H28       3.3564    3.1912    1.6187   H         1 RES1   0.0000
    92 H29       1.0822    1.6915    5.3819   H         1 RES1   0.0000
    93 H30       1.7096    3.0306    7.3745   H         1 RES1   0.0000
    94 H31       3.8789    4.2007    7.4469   H         1 RES1   0.0000
    95 H32       5.4596    3.9889    5.5679   H         1 RES1   0.0000
    96 H33       4.8604    2.6520    3.6012   H         1 RES1   0.0000
    97 H34       5.1146    0.8580    0.9185   H         1 RES1   0.0000
    98 H35       6.8376   -0.8626    1.0777   H         1 RES1   0.0000
    99 H36       6.8259   -2.4979    2.9184   H         1 RES1   0.0000
   100 H37       5.0410   -2.3990    4.6321   H         1 RES1   0.0000
   101 H38       3.2594   -0.7144    4.4498   H         1 RES1   0.0000
   102 H39       1.5038    4.4286   -3.5396   H         1 RES1   0.0000
   103 H40       0.8259    5.8390   -5.4474   H         1 RES1   0.0000
   104 H41      -1.0190    7.4533   -5.2094   H         1 RES1   0.0000
   105 H42      -2.1659    7.7111   -3.0351   H         1 RES1   0.0000
   106 H43      -1.4925    6.3175   -1.1262   H         1 RES1   0.0000
   107 H44      -2.0180    4.5840    1.2804   H         1 RES1   0.0000
   108 H45      -2.0424    6.1280    3.1816   H         1 RES1   0.0000
   109 H46      -0.1105    7.5976    3.6344   H         1 RES1   0.0000
   110 H47       1.8208    7.5772    2.0964   H         1 RES1   0.0000
   111 H48       1.8212    6.1099    0.1502   H         1 RES1   0.0000
   112 S5       -0.6232   -2.3909    0.8453   S.3       1 RES1   0.0000
   113 P5        0.9859   -3.5447    0.9423   P.3       1 RES1   0.0000
   114 C53       2.5898   -2.5789    1.0965   C.3       1 RES1   0.0000
   115 O3        2.6583   -1.5524    0.1039   O.3       1 RES1   0.0000
   116 C54       3.7865   -1.6849   -0.7541   C.3       1 RES1   0.0000
   117 P6        3.6836   -0.4415   -2.1819   P.3       1 RES1   0.0000
   118 S6        1.9452    0.4934   -2.2122   S.3       1 RES1   0.0000
   119 C55       4.0256   -1.5170   -3.5924   C.ar      1 RES1   0.0000
   120 C56       3.1591   -1.6089   -4.6714   C.ar      1 RES1   0.0000
   121 C57       3.4643   -2.4833   -5.7042   C.ar      1 RES1   0.0000
   122 C58       4.6245   -3.2405   -5.6582   C.ar      1 RES1   0.0000
   123 C59       5.4976   -3.1245   -4.5869   C.ar      1 RES1   0.0000
   124 C60       5.2028   -2.2638   -3.5497   C.ar      1 RES1   0.0000
   125 C61       4.9893    0.8371   -2.1208   C.ar      1 RES1   0.0000
   126 C62       4.8262    1.8718   -1.2033   C.ar      1 RES1   0.0000
   127 C63       5.6770    2.9609   -1.2098   C.ar      1 RES1   0.0000
   128 C64       6.6719    3.0550   -2.1721   C.ar      1 RES1   0.0000
   129 C65       6.8015    2.0545   -3.1203   C.ar      1 RES1   0.0000
   130 C66       5.9735    0.9416   -3.0970   C.ar      1 RES1   0.0000
   131 C67       0.8377   -4.5624    2.4338   C.ar      1 RES1   0.0000
   132 C68       1.7023   -4.5522    3.5233   C.ar      1 RES1   0.0000
   133 C69       1.3943   -5.3253    4.6343   C.ar      1 RES1   0.0000
   134 C70       0.2455   -6.1019    4.6576   C.ar      1 RES1   0.0000
   135 C71      -0.6188   -6.1015    3.5736   C.ar      1 RES1   0.0000
   136 C72      -0.3263   -5.3302    2.4679   C.ar      1 RES1   0.0000
   137 C73       1.2161   -4.5996   -0.5224   C.ar      1 RES1   0.0000
   138 C74       1.2822   -4.0445   -1.7986   C.ar      1 RES1   0.0000
   139 C75       1.4818   -4.8739   -2.8874   C.ar      1 RES1   0.0000
   140 C76       1.6009   -6.2452   -2.7179   C.ar      1 RES1   0.0000
   141 C77       1.5255   -6.7918   -1.4469   C.ar      1 RES1   0.0000
   142 C78       1.3411   -5.9727   -0.3497   C.ar      1 RES1   0.0000
   143 H49       3.4186   -3.2901    0.9980   H         1 RES1   0.0000
   144 H50       2.6245   -2.1238    2.0980   H         1 RES1   0.0000
   145 H51       3.8202   -2.6877   -1.2103   H         1 RES1   0.0000
   146 H52       4.7195   -1.5172   -0.1961   H         1 RES1   0.0000
   147 H53       2.2605   -1.0057   -4.6844   H         1 RES1   0.0000
   148 H54       2.8004   -2.5701   -6.5499   H         1 RES1   0.0000
   149 H55       4.8570   -3.9215   -6.4622   H         1 RES1   0.0000
   150 H56       6.4087   -3.6990   -4.5624   H         1 RES1   0.0000
   151 H57       5.8783   -2.1640   -2.7104   H         1 RES1   0.0000
   152 H58       4.0033    1.8137   -0.5063   H         1 RES1   0.0000
   153 H59       5.5635    3.7527   -0.4846   H         1 RES1   0.0000
   154 H60       7.3220    3.9174   -2.1996   H         1 RES1   0.0000
   155 H61       7.5405    2.1471   -3.8997   H         1 RES1   0.0000
   156 H62       6.0937    0.1760   -3.8467   H         1 RES1   0.0000
   157 H63       2.6072   -3.9629    3.5099   H         1 RES1   0.0000
   158 H64       2.0558   -5.3249    5.4870   H         1 RES1   0.0000
   159 H65       0.0324   -6.7200    5.5160   H         1 RES1   0.0000
   160 H66      -1.5179   -6.6993    3.5922   H         1 RES1   0.0000
   161 H67      -0.9869   -5.3093    1.6105   H         1 RES1   0.0000
   162 H68       1.1790   -2.9743   -1.9397   H         1 RES1   0.0000
   163 H69       1.5500   -4.4526   -3.8782   H         1 RES1   0.0000
   164 H70       1.7620   -6.8869   -3.5689   H         1 RES1   0.0000
   165 H71       1.6217   -7.8544   -1.3033   H         1 RES1   0.0000
   166 H72       1.3072   -6.3939    0.6445   H         1 RES1   0.0000
@<TRIPOS>BOND
     1     1     2    1
     2     1     5    1
     3     1     8    1
     4     1    57    1
     5     1    60    1
     6     1    63    1
     7     1   112    1
     8     1   115    1
     9     1   118    1
    10     2     3    2
    11     3     4    1
    12     3    21    1
    13     3    27    1
    14     4     5    1
    15     4    33    1
    16     4    34    1
    17     5     6    1
    18     6     7    1
    19     6    35    1
    20     6    36    1
    21     7     8    2
    22     7     9    1
    23     7    15    1
    24     9    10    1
    25     9    14    2
    26    10    11    2
    27    10    37    1
    28    11    12    1
    29    11    38    1
    30    12    13    2
    31    12    39    1
    32    13    14    1
    33    13    40    1
    34    14    41    1
    35    15    16    1
    36    15    20    2
    37    16    17    2
    38    16    42    1
    39    17    18    1
    40    17    43    1
    41    18    19    2
    42    18    44    1
    43    19    20    1
    44    19    45    1
    45    20    46    1
    46    21    22    1
    47    21    26    2
    48    22    23    2
    49    22    47    1
    50    23    24    1
    51    23    48    1
    52    24    25    2
    53    24    49    1
    54    25    26    1
    55    25    50    1
    56    26    51    1
    57    27    28    1
    58    27    32    2
    59    28    29    2
    60    28    52    1
    61    29    30    1
    62    29    53    1
    63    30    31    2
    64    30    54    1
    65    31    32    1
    66    31    55    1
    67    32    56    1
    68    57    58    2
    69    58    59    1
    70    58    76    1
    71    58    82    1
    72    59    60    1
    73    59    88    1
    74    59    89    1
    75    60    61    1
    76    61    62    1
    77    61    90    1
    78    61    91    1
    79    62    63    2
    80    62    64    1
    81    62    70    1
    82    64    65    1
    83    64    69    2
    84    65    66    2
    85    65    92    1
    86    66    67    1
    87    66    93    1
    88    67    68    2
    89    67    94    1
    90    68    69    1
    91    68    95    1
    92    69    96    1
    93    70    71    1
    94    70    75    2
    95    71    72    2
    96    71    97    1
    97    72    73    1
    98    72    98    1
    99    73    74    2
   100    73    99    1
   101    74    75    1
   102    74   100    1
   103    75   101    1
   104    76    77    1
   105    76    81    2
   106    77    78    2
   107    77   102    1
   108    78    79    1
   109    78   103    1
   110    79    80    2
   111    79   104    1
   112    80    81    1
   113    80   105    1
   114    81   106    1
   115    82    83    1
   116    82    87    2
   117    83    84    2
   118    83   107    1
   119    84    85    1
   120    84   108    1
   121    85    86    2
   122    85   109    1
   123    86    87    1
   124    86   110    1
   125    87   111    1
   126   112   113    2
   127   113   114    1
   128   113   131    1
   129   113   137    1
   130   114   115    1
   131   114   143    1
   132   114   144    1
   133   115   116    1
   134   116   117    1
   135   116   145    1
   136   116   146    1
   137   117   118    2
   138   117   119    1
   139   117   125    1
   140   119   120    1
   141   119   124    2
   142   120   121    2
   143   120   147    1
   144   121   122    1
   145   121   148    1
   146   122   123    2
   147   122   149    1
   148   123   124    1
   149   123   150    1
   150   124   151    1
   151   125   126    1
   152   125   130    2
   153   126   127    2
   154   126   152    1
   155   127   128    1
   156   127   153    1
   157   128   129    2
   158   128   154    1
   159   129   130    1
   160   129   155    1
   161   130   156    1
   162   131   132    1
   163   131   136    2
   164   132   133    2
   165   132   157    1
   166   133   134    1
   167   133   158    1
   168   134   135    2
   169   134   159    1
   170   135   136    1
   171   135   160    1
   172   136   161    1
   173   137   138    1
   174   137   142    2
   175   138   139    2
   176   138   162    1
   177   139   140    1
   178   139   163    1
   179   140   141    2
   180   140   164    1
   181   141   142    1
   182   141   165    1
   183   142   166    1
@<TRIPOS>SUBSTRUCTURE
     1 RES1      166 GROUP             0 ****  ****    0  
