@<TRIPOS>MOLECULE
am_c3_9H2O_c0_0_nunpairedes_0_charge_3 Charge: 3 Unpaired_Electrons: 6 XTB_Unpaired_Electrons: 0 XTB_Charge: 3
   190   195     1     0     0
SMALL
NoCharges
****
Generated from Architector

@<TRIPOS>ATOM
     1 Eu1       0.0683   -0.0228    0.1376   Eu        1 RES1   0.0000
     2 C1       -4.4681   -1.6214    5.0583   C.3       1 RES1   0.0000
     3 C2       -4.4547   -0.1246    5.3425   C.3       1 RES1   0.0000
     4 C3       -3.4311    0.6372    4.4943   C.3       1 RES1   0.0000
     5 C4       -3.8482    0.6377    3.0220   C.3       1 RES1   0.0000
     6 P1       -2.9050    1.7874    1.9419   P.3       1 RES1   0.0000
     7 S1       -0.9446    1.6076    2.0970   S.3       1 RES1   0.0000
     8 C5       -3.0566    3.5597    2.4403   C.3       1 RES1   0.0000
     9 C6       -4.3317    4.3817    2.4246   C.3       1 RES1   0.0000
    10 C7       -5.4339    3.7973    3.3036   C.3       1 RES1   0.0000
    11 C8       -6.5600    4.7939    3.5242   C.3       1 RES1   0.0000
    12 C9       -3.4322    1.1124    0.2458   C.3       1 RES1   0.0000
    13 O1       -2.6992   -0.1031    0.1184   O.3       1 RES1   0.0000
    14 C10      -3.4645   -1.3038    0.0855   C.3       1 RES1   0.0000
    15 P2       -2.8090   -2.4325   -1.2778   P.3       1 RES1   0.0000
    16 S2       -0.9696   -1.8917   -1.8049   S.3       1 RES1   0.0000
    17 C11      -2.7924   -4.0993   -0.4820   C.3       1 RES1   0.0000
    18 C12      -2.5183   -5.3008   -1.3960   C.3       1 RES1   0.0000
    19 C13      -1.0463   -5.7043   -1.5159   C.3       1 RES1   0.0000
    20 C14      -0.5303   -6.5152   -0.3307   C.3       1 RES1   0.0000
    21 C15      -4.0045   -2.3202   -2.6641   C.3       1 RES1   0.0000
    22 C16      -5.4867   -2.2736   -2.2762   C.3       1 RES1   0.0000
    23 C17      -5.9125   -3.3930   -1.3321   C.3       1 RES1   0.0000
    24 C18      -7.4278   -3.5129   -1.2203   C.3       1 RES1   0.0000
    25 H1       -5.1196   -2.1235    5.7641   H         1 RES1   0.0000
    26 H2       -3.4654   -2.0293    5.1600   H         1 RES1   0.0000
    27 H3       -4.8319   -1.8376    4.0553   H         1 RES1   0.0000
    28 H4       -4.2068    0.0321    6.3919   H         1 RES1   0.0000
    29 H5       -5.4533    0.2866    5.1822   H         1 RES1   0.0000
    30 H6       -2.4488    0.1686    4.5940   H         1 RES1   0.0000
    31 H7       -3.3613    1.6617    4.8662   H         1 RES1   0.0000
    32 H8       -4.9101    0.8919    2.9322   H         1 RES1   0.0000
    33 H9       -3.6961   -0.3680    2.6114   H         1 RES1   0.0000
    34 H10      -2.2580    4.0578    1.8812   H         1 RES1   0.0000
    35 H11      -2.7042    3.4791    3.4753   H         1 RES1   0.0000
    36 H12      -4.6936    4.5151    1.4056   H         1 RES1   0.0000
    37 H13      -4.0698    5.3747    2.8009   H         1 RES1   0.0000
    38 H14      -5.0036    3.5232    4.2700   H         1 RES1   0.0000
    39 H15      -5.8230    2.8878    2.8283   H         1 RES1   0.0000
    40 H16      -6.1902    5.6783    4.0327   H         1 RES1   0.0000
    41 H17      -7.3307    4.3563    4.1522   H         1 RES1   0.0000
    42 H18      -6.9964    5.0875    2.5757   H         1 RES1   0.0000
    43 H19      -3.1882    1.7652   -0.6008   H         1 RES1   0.0000
    44 H20      -4.5059    0.9265    0.2541   H         1 RES1   0.0000
    45 H21      -4.5205   -1.0858   -0.0735   H         1 RES1   0.0000
    46 H22      -3.3548   -1.8389    1.0415   H         1 RES1   0.0000
    47 H23      -3.7545   -4.2218    0.0119   H         1 RES1   0.0000
    48 H24      -2.0417   -4.0310    0.3110   H         1 RES1   0.0000
    49 H25      -2.9061   -5.1037   -2.3953   H         1 RES1   0.0000
    50 H26      -3.0741   -6.1495   -0.9982   H         1 RES1   0.0000
    51 H27      -0.4439   -4.8115   -1.6900   H         1 RES1   0.0000
    52 H28      -0.9310   -6.3213   -2.4031   H         1 RES1   0.0000
    53 H29      -0.6747   -6.0113    0.6221   H         1 RES1   0.0000
    54 H30       0.5293   -6.7222   -0.4448   H         1 RES1   0.0000
    55 H31      -1.0428   -7.4696   -0.2767   H         1 RES1   0.0000
    56 H32      -3.8128   -3.1869   -3.3013   H         1 RES1   0.0000
    57 H33      -3.7201   -1.4329   -3.2434   H         1 RES1   0.0000
    58 H34      -6.0729   -2.3385   -3.1903   H         1 RES1   0.0000
    59 H35      -5.7196   -1.3050   -1.8344   H         1 RES1   0.0000
    60 H36      -5.5084   -3.1953   -0.3315   H         1 RES1   0.0000
    61 H37      -5.5079   -4.3412   -1.6974   H         1 RES1   0.0000
    62 H38      -7.8611   -2.5917   -0.8373   H         1 RES1   0.0000
    63 H39      -7.6898   -4.3258   -0.5476   H         1 RES1   0.0000
    64 H40      -7.8609   -3.7350   -2.1905   H         1 RES1   0.0000
    65 C19      -0.3534    4.4487    5.2758   C.3       1 RES1   0.0000
    66 C20       1.0711    4.0262    5.6142   C.3       1 RES1   0.0000
    67 C21       1.5528    2.8189    4.8036   C.3       1 RES1   0.0000
    68 C22       1.6850    3.1972    3.3322   C.3       1 RES1   0.0000
    69 P3        2.5868    1.9573    2.3242   P.3       1 RES1   0.0000
    70 S3        1.9777    0.0675    2.2867   S.3       1 RES1   0.0000
    71 C23       4.3204    1.9006    2.8672   C.3       1 RES1   0.0000
    72 C24       5.0805    3.2161    2.7753   C.3       1 RES1   0.0000
    73 C25       6.5492    3.0252    3.1505   C.3       1 RES1   0.0000
    74 C26       7.3182    4.3319    3.0130   C.3       1 RES1   0.0000
    75 C27       2.5788    2.7298    0.6285   C.3       1 RES1   0.0000
    76 O2        1.2529    2.6846    0.1149   O.3       1 RES1   0.0000
    77 C28       1.1302    3.6795   -0.8851   C.3       1 RES1   0.0000
    78 P4       -0.4658    3.5759   -1.8580   P.3       1 RES1   0.0000
    79 S4       -0.9197    1.6597   -2.0964   S.3       1 RES1   0.0000
    80 C29      -1.8610    4.4514   -1.0092   C.3       1 RES1   0.0000
    81 C30      -2.9544    4.9748   -1.9490   C.3       1 RES1   0.0000
    82 C31      -4.0156    3.9424   -2.3531   C.3       1 RES1   0.0000
    83 C32      -5.1433    3.8305   -1.3347   C.3       1 RES1   0.0000
    84 C33       0.0106    4.4860   -3.3885   C.3       1 RES1   0.0000
    85 C34       0.8089    5.7818   -3.1752   C.3       1 RES1   0.0000
    86 C35       0.1601    6.7871   -2.2248   C.3       1 RES1   0.0000
    87 C36       0.8753    8.1333   -2.2306   C.3       1 RES1   0.0000
    88 H41      -0.6693    5.2461    5.9418   H         1 RES1   0.0000
    89 H42      -1.0320    3.6055    5.3948   H         1 RES1   0.0000
    90 H43      -0.4290    4.8178    4.2557   H         1 RES1   0.0000
    91 H44       1.1237    3.7812    6.6734   H         1 RES1   0.0000
    92 H45       1.7446    4.8664    5.4407   H         1 RES1   0.0000
    93 H46       0.8503    1.9903    4.9143   H         1 RES1   0.0000
    94 H47       2.5153    2.4939    5.2023   H         1 RES1   0.0000
    95 H48       2.2553    4.1252    3.2315   H         1 RES1   0.0000
    96 H49       0.6993    3.3364    2.8854   H         1 RES1   0.0000
    97 H50       4.8005    1.1279    2.2596   H         1 RES1   0.0000
    98 H51       4.2965    1.5261    3.8969   H         1 RES1   0.0000
    99 H52       4.6346    3.9515    3.4457   H         1 RES1   0.0000
   100 H53       5.0264    3.5976    1.7514   H         1 RES1   0.0000
   101 H54       6.9950    2.2707    2.4984   H         1 RES1   0.0000
   102 H55       6.6176    2.6674    4.1806   H         1 RES1   0.0000
   103 H56       7.2834    4.6886    1.9864   H         1 RES1   0.0000
   104 H57       8.3585    4.1891    3.2878   H         1 RES1   0.0000
   105 H58       6.8989    5.0965    3.6609   H         1 RES1   0.0000
   106 H59       3.2693    2.1990   -0.0427   H         1 RES1   0.0000
   107 H60       2.8855    3.7774    0.7280   H         1 RES1   0.0000
   108 H61       1.9011    3.5135   -1.6554   H         1 RES1   0.0000
   109 H62       1.2754    4.6659   -0.4252   H         1 RES1   0.0000
   110 H63      -1.4427    5.2775   -0.4306   H         1 RES1   0.0000
   111 H64      -2.2780    3.7314   -0.3054   H         1 RES1   0.0000
   112 H65      -2.5038    5.3801   -2.8533   H         1 RES1   0.0000
   113 H66      -3.4543    5.8072   -1.4470   H         1 RES1   0.0000
   114 H67      -3.5437    2.9724   -2.5311   H         1 RES1   0.0000
   115 H68      -4.4561    4.2527   -3.3001   H         1 RES1   0.0000
   116 H69      -4.7833    3.4651   -0.3762   H         1 RES1   0.0000
   117 H70      -5.9078    3.1486   -1.6942   H         1 RES1   0.0000
   118 H71      -5.6070    4.8023   -1.1888   H         1 RES1   0.0000
   119 H72      -0.9082    4.6878   -3.9473   H         1 RES1   0.0000
   120 H73       0.5907    3.7785   -3.9902   H         1 RES1   0.0000
   121 H74       0.9323    6.2549   -4.1503   H         1 RES1   0.0000
   122 H75       1.8142    5.5423   -2.8185   H         1 RES1   0.0000
   123 H76       0.1876    6.3948   -1.2070   H         1 RES1   0.0000
   124 H77      -0.8820    6.9468   -2.5141   H         1 RES1   0.0000
   125 H78       1.9140    8.0212   -1.9217   H         1 RES1   0.0000
   126 H79       0.3869    8.8161   -1.5399   H         1 RES1   0.0000
   127 H80       0.8420    8.5731   -3.2209   H         1 RES1   0.0000
   128 C37       3.8337   -2.3238    5.2433   C.3       1 RES1   0.0000
   129 C38       2.6097   -3.0609    5.7697   C.3       1 RES1   0.0000
   130 C39       1.3484   -2.7457    4.9642   C.3       1 RES1   0.0000
   131 C40       1.5090   -3.2558    3.5373   C.3       1 RES1   0.0000
   132 P5       -0.0228   -3.3113    2.5349   P.3       1 RES1   0.0000
   133 S5       -1.0762   -1.6643    2.2537   S.3       1 RES1   0.0000
   134 C41      -1.0992   -4.5321    3.4056   C.3       1 RES1   0.0000
   135 C42      -2.6017   -4.5760    3.0924   C.3       1 RES1   0.0000
   136 C43      -3.0246   -5.9361    2.5417   C.3       1 RES1   0.0000
   137 C44      -4.5321   -6.0481    2.3525   C.3       1 RES1   0.0000
   138 C45       0.7423   -3.7807    0.8864   C.3       1 RES1   0.0000
   139 O3        1.4425   -2.6367    0.4055   O.3       1 RES1   0.0000
   140 C46       2.1942   -2.9975   -0.7481   C.3       1 RES1   0.0000
   141 P6        3.2778   -1.5678   -1.2486   P.3       1 RES1   0.0000
   142 S6        2.2463    0.1009   -1.5486   S.3       1 RES1   0.0000
   143 C47       4.4178   -1.3931    0.1755   C.3       1 RES1   0.0000
   144 C48       5.6897   -0.6022   -0.1291   C.3       1 RES1   0.0000
   145 C49       6.6836   -0.7181    1.0308   C.3       1 RES1   0.0000
   146 C50       7.2083   -2.1346    1.2233   C.3       1 RES1   0.0000
   147 C51       4.0216   -2.0625   -2.8492   C.3       1 RES1   0.0000
   148 C52       4.5910   -3.4745   -2.9583   C.3       1 RES1   0.0000
   149 C53       5.8561   -3.6682   -2.1266   C.3       1 RES1   0.0000
   150 C54       6.4180   -5.0759   -2.2581   C.3       1 RES1   0.0000
   151 H81       4.6786   -2.4783    5.9084   H         1 RES1   0.0000
   152 H82       3.6238   -1.2576    5.1731   H         1 RES1   0.0000
   153 H83       4.1175   -2.6796    4.2551   H         1 RES1   0.0000
   154 H84       2.4412   -2.7847    6.8098   H         1 RES1   0.0000
   155 H85       2.7962   -4.1349    5.7437   H         1 RES1   0.0000
   156 H86       1.1626   -1.6716    4.9503   H         1 RES1   0.0000
   157 H87       0.5028   -3.2283    5.4559   H         1 RES1   0.0000
   158 H88       1.8726   -4.2896    3.5569   H         1 RES1   0.0000
   159 H89       2.2388   -2.6446    2.9971   H         1 RES1   0.0000
   160 H90      -0.9786   -4.1740    4.4331   H         1 RES1   0.0000
   161 H91      -0.6309   -5.5159    3.3601   H         1 RES1   0.0000
   162 H92      -2.8763   -3.7643    2.4126   H         1 RES1   0.0000
   163 H93      -3.1618   -4.3897    4.0108   H         1 RES1   0.0000
   164 H94      -2.7081   -6.7067    3.2487   H         1 RES1   0.0000
   165 H95      -2.5237   -6.1214    1.5926   H         1 RES1   0.0000
   166 H96      -5.0463   -5.9159    3.2997   H         1 RES1   0.0000
   167 H97      -4.7748   -7.0368    1.9777   H         1 RES1   0.0000
   168 H98      -4.9105   -5.3057    1.6503   H         1 RES1   0.0000
   169 H99      -0.0226   -4.0489    0.1578   H         1 RES1   0.0000
   170 H100      1.4344   -4.6224    1.0264   H         1 RES1   0.0000
   171 H101      1.5358   -3.2403   -1.5982   H         1 RES1   0.0000
   172 H102      2.8401   -3.8555   -0.5120   H         1 RES1   0.0000
   173 H103      4.6655   -2.3959    0.5260   H         1 RES1   0.0000
   174 H104      3.8352   -0.9004    0.9658   H         1 RES1   0.0000
   175 H105      5.4433    0.4476   -0.3104   H         1 RES1   0.0000
   176 H106      6.1648   -0.9835   -1.0330   H         1 RES1   0.0000
   177 H107      6.2177   -0.3855    1.9594   H         1 RES1   0.0000
   178 H108      7.5246   -0.0583    0.8279   H         1 RES1   0.0000
   179 H109      6.4263   -2.8080    1.5630   H         1 RES1   0.0000
   180 H110      7.9891   -2.1474    1.9759   H         1 RES1   0.0000
   181 H111      7.6224   -2.5199    0.2974   H         1 RES1   0.0000
   182 H112      4.7958   -1.3201   -3.0771   H         1 RES1   0.0000
   183 H113      3.2061   -1.9083   -3.5675   H         1 RES1   0.0000
   184 H114      4.8251   -3.6569   -4.0083   H         1 RES1   0.0000
   185 H115      3.8351   -4.2120   -2.6744   H         1 RES1   0.0000
   186 H116      5.6301   -3.4749   -1.0783   H         1 RES1   0.0000
   187 H117      6.6114   -2.9486   -2.4548   H         1 RES1   0.0000
   188 H118      5.6954   -5.8164   -1.9228   H         1 RES1   0.0000
   189 H119      7.3157   -5.1784   -1.6546   H         1 RES1   0.0000
   190 H120      6.6763   -5.2828   -3.2900   H         1 RES1   0.0000
@<TRIPOS>BOND
     1     1     7    1
     2     1    13    1
     3     1    16    1
     4     1    70    1
     5     1    76    1
     6     1    79    1
     7     1   133    1
     8     1   139    1
     9     1   142    1
    10     2     3    1
    11     2    25    1
    12     2    26    1
    13     2    27    1
    14     3     4    1
    15     3    28    1
    16     3    29    1
    17     4     5    1
    18     4    30    1
    19     4    31    1
    20     5     6    1
    21     5    32    1
    22     5    33    1
    23     6     7    2
    24     6     8    1
    25     6    12    1
    26     8     9    1
    27     8    34    1
    28     8    35    1
    29     9    10    1
    30     9    36    1
    31     9    37    1
    32    10    11    1
    33    10    38    1
    34    10    39    1
    35    11    40    1
    36    11    41    1
    37    11    42    1
    38    12    13    1
    39    12    43    1
    40    12    44    1
    41    13    14    1
    42    14    15    1
    43    14    45    1
    44    14    46    1
    45    15    16    2
    46    15    17    1
    47    15    21    1
    48    17    18    1
    49    17    47    1
    50    17    48    1
    51    18    19    1
    52    18    49    1
    53    18    50    1
    54    19    20    1
    55    19    51    1
    56    19    52    1
    57    20    53    1
    58    20    54    1
    59    20    55    1
    60    21    22    1
    61    21    56    1
    62    21    57    1
    63    22    23    1
    64    22    58    1
    65    22    59    1
    66    23    24    1
    67    23    60    1
    68    23    61    1
    69    24    62    1
    70    24    63    1
    71    24    64    1
    72    65    66    1
    73    65    88    1
    74    65    89    1
    75    65    90    1
    76    66    67    1
    77    66    91    1
    78    66    92    1
    79    67    68    1
    80    67    93    1
    81    67    94    1
    82    68    69    1
    83    68    95    1
    84    68    96    1
    85    69    70    2
    86    69    71    1
    87    69    75    1
    88    71    72    1
    89    71    97    1
    90    71    98    1
    91    72    73    1
    92    72    99    1
    93    72   100    1
    94    73    74    1
    95    73   101    1
    96    73   102    1
    97    74   103    1
    98    74   104    1
    99    74   105    1
   100    75    76    1
   101    75   106    1
   102    75   107    1
   103    76    77    1
   104    77    78    1
   105    77   108    1
   106    77   109    1
   107    78    79    2
   108    78    80    1
   109    78    84    1
   110    80    81    1
   111    80   110    1
   112    80   111    1
   113    81    82    1
   114    81   112    1
   115    81   113    1
   116    82    83    1
   117    82   114    1
   118    82   115    1
   119    83   116    1
   120    83   117    1
   121    83   118    1
   122    84    85    1
   123    84   119    1
   124    84   120    1
   125    85    86    1
   126    85   121    1
   127    85   122    1
   128    86    87    1
   129    86   123    1
   130    86   124    1
   131    87   125    1
   132    87   126    1
   133    87   127    1
   134   128   129    1
   135   128   151    1
   136   128   152    1
   137   128   153    1
   138   129   130    1
   139   129   154    1
   140   129   155    1
   141   130   131    1
   142   130   156    1
   143   130   157    1
   144   131   132    1
   145   131   158    1
   146   131   159    1
   147   132   133    2
   148   132   134    1
   149   132   138    1
   150   134   135    1
   151   134   160    1
   152   134   161    1
   153   135   136    1
   154   135   162    1
   155   135   163    1
   156   136   137    1
   157   136   164    1
   158   136   165    1
   159   137   166    1
   160   137   167    1
   161   137   168    1
   162   138   139    1
   163   138   169    1
   164   138   170    1
   165   139   140    1
   166   140   141    1
   167   140   171    1
   168   140   172    1
   169   141   142    2
   170   141   143    1
   171   141   147    1
   172   143   144    1
   173   143   173    1
   174   143   174    1
   175   144   145    1
   176   144   175    1
   177   144   176    1
   178   145   146    1
   179   145   177    1
   180   145   178    1
   181   146   179    1
   182   146   180    1
   183   146   181    1
   184   147   148    1
   185   147   182    1
   186   147   183    1
   187   148   149    1
   188   148   184    1
   189   148   185    1
   190   149   150    1
   191   149   186    1
   192   149   187    1
   193   150   188    1
   194   150   189    1
   195   150   190    1
@<TRIPOS>SUBSTRUCTURE
     1 RES1      190 GROUP             0 ****  ****    0  
