@<TRIPOS>MOLECULE
am_c3_9H2O_c0_0_nunpairedes_0_charge_3 Charge: 3 Unpaired_Electrons: 6 XTB_Unpaired_Electrons: 0 XTB_Charge: 3
   190   195     1     0     0
SMALL
NoCharges
****
Generated from Architector

@<TRIPOS>ATOM
     1 Eu1       0.3305   -0.0029   -0.0746   Eu        1 RES1   0.0000
     2 C1       -4.2241   -6.0201    2.5959   C.3       1 RES1   0.0000
     3 C2       -4.8701   -5.0018    1.6671   C.3       1 RES1   0.0000
     4 C3       -3.9819   -3.7842    1.4252   C.3       1 RES1   0.0000
     5 C4       -3.8083   -2.9416    2.6876   C.3       1 RES1   0.0000
     6 P1       -2.7155   -1.5073    2.4083   P.3       1 RES1   0.0000
     7 S1       -1.0949   -2.0726    1.4020   S.3       1 RES1   0.0000
     8 C5       -2.3688   -0.8202    4.0915   C.3       1 RES1   0.0000
     9 C6       -3.5683   -0.2283    4.8449   C.3       1 RES1   0.0000
    10 C7       -3.7119    1.2778    4.6215   C.3       1 RES1   0.0000
    11 C8       -4.9573    1.8457    5.2966   C.3       1 RES1   0.0000
    12 C9       -3.7665   -0.3807    1.3653   C.3       1 RES1   0.0000
    13 O1       -2.9136    0.3727    0.5243   O.3       1 RES1   0.0000
    14 C10      -3.5992    1.3255   -0.2796   C.3       1 RES1   0.0000
    15 P2       -3.0080    0.9690   -2.0196   P.3       1 RES1   0.0000
    16 S2       -1.1049    1.5249   -2.0134   S.3       1 RES1   0.0000
    17 C11      -3.9011    2.0318   -3.2226   C.3       1 RES1   0.0000
    18 C12      -5.4148    2.1866   -3.0656   C.3       1 RES1   0.0000
    19 C13      -6.1872    0.9328   -3.4711   C.3       1 RES1   0.0000
    20 C14      -7.6959    1.1122   -3.3549   C.3       1 RES1   0.0000
    21 C15      -3.3236   -0.8383   -2.2264   C.3       1 RES1   0.0000
    22 C16      -3.2739   -1.3372   -3.6719   C.3       1 RES1   0.0000
    23 C17      -3.6255   -2.8278   -3.7621   C.3       1 RES1   0.0000
    24 C18      -5.0891   -3.1325   -3.4590   C.3       1 RES1   0.0000
    25 H1       -4.8484   -6.9047    2.6542   H         1 RES1   0.0000
    26 H2       -4.1094   -5.6289    3.6029   H         1 RES1   0.0000
    27 H3       -3.2461   -6.3098    2.2185   H         1 RES1   0.0000
    28 H4       -5.8326   -4.6824    2.0731   H         1 RES1   0.0000
    29 H5       -5.0595   -5.4710    0.7023   H         1 RES1   0.0000
    30 H6       -4.4148   -3.1729    0.6284   H         1 RES1   0.0000
    31 H7       -2.9932   -4.1152    1.0897   H         1 RES1   0.0000
    32 H8       -3.3397   -3.5329    3.4800   H         1 RES1   0.0000
    33 H9       -4.7781   -2.5833    3.0538   H         1 RES1   0.0000
    34 H10      -1.5621   -0.0816    4.0190   H         1 RES1   0.0000
    35 H11      -1.9704   -1.7005    4.6178   H         1 RES1   0.0000
    36 H12      -3.4161   -0.4082    5.9099   H         1 RES1   0.0000
    37 H13      -4.4859   -0.7481    4.5655   H         1 RES1   0.0000
    38 H14      -3.7454    1.4921    3.5487   H         1 RES1   0.0000
    39 H15      -2.8288    1.7795    5.0240   H         1 RES1   0.0000
    40 H16      -5.8584    1.3305    4.9686   H         1 RES1   0.0000
    41 H17      -5.0599    2.8982    5.0672   H         1 RES1   0.0000
    42 H18      -4.8845    1.7477    6.3771   H         1 RES1   0.0000
    43 H19      -4.3736    0.2673    2.0102   H         1 RES1   0.0000
    44 H20      -4.4511   -1.0200    0.7808   H         1 RES1   0.0000
    45 H21      -3.2932    2.3452    0.0133   H         1 RES1   0.0000
    46 H22      -4.6856    1.2332   -0.1817   H         1 RES1   0.0000
    47 H23      -3.6559    1.6227   -4.2091   H         1 RES1   0.0000
    48 H24      -3.4013    3.0049   -3.1342   H         1 RES1   0.0000
    49 H25      -5.7263    3.0119   -3.7093   H         1 RES1   0.0000
    50 H26      -5.6624    2.4797   -2.0421   H         1 RES1   0.0000
    51 H27      -5.8808    0.0998   -2.8332   H         1 RES1   0.0000
    52 H28      -5.9419    0.6891   -4.5077   H         1 RES1   0.0000
    53 H29      -7.9914    1.3316   -2.3319   H         1 RES1   0.0000
    54 H30      -8.1992    0.2021   -3.6664   H         1 RES1   0.0000
    55 H31      -8.0351    1.9217   -3.9954   H         1 RES1   0.0000
    56 H32      -4.3046   -1.0436   -1.7950   H         1 RES1   0.0000
    57 H33      -2.5668   -1.3610   -1.6236   H         1 RES1   0.0000
    58 H34      -2.2702   -1.1830   -4.0774   H         1 RES1   0.0000
    59 H35      -3.9830   -0.7858   -4.2928   H         1 RES1   0.0000
    60 H36      -2.9822   -3.4038   -3.0912   H         1 RES1   0.0000
    61 H37      -3.4132   -3.1546   -4.7812   H         1 RES1   0.0000
    62 H38      -5.3184   -3.0091   -2.4025   H         1 RES1   0.0000
    63 H39      -5.3202   -4.1597   -3.7231   H         1 RES1   0.0000
    64 H40      -5.7420   -2.4855   -4.0369   H         1 RES1   0.0000
    65 C19       7.0486   -0.2172    3.5276   C.3       1 RES1   0.0000
    66 C20       6.8558   -1.4978    2.7248   C.3       1 RES1   0.0000
    67 C21       5.4637   -1.5744    2.0965   C.3       1 RES1   0.0000
    68 C22       4.3826   -1.8469    3.1466   C.3       1 RES1   0.0000
    69 P3        2.7234   -1.5561    2.4460   P.3       1 RES1   0.0000
    70 S3        2.6930    0.1902    1.5270   S.3       1 RES1   0.0000
    71 C23       1.4969   -1.4202    3.8086   C.3       1 RES1   0.0000
    72 C24       1.4774   -2.5139    4.8668   C.3       1 RES1   0.0000
    73 C25       0.7766   -3.7836    4.3917   C.3       1 RES1   0.0000
    74 C26       0.5933   -4.7774    5.5297   C.3       1 RES1   0.0000
    75 C27       2.4599   -3.0030    1.2703   C.3       1 RES1   0.0000
    76 O2        1.5688   -2.6625    0.2202   O.3       1 RES1   0.0000
    77 C28       1.1266   -3.8198   -0.5034   C.3       1 RES1   0.0000
    78 P4        1.1463   -3.2676   -2.2856   P.3       1 RES1   0.0000
    79 S4        0.0005   -1.6541   -2.4019   S.3       1 RES1   0.0000
    80 C29       0.3767   -4.5140   -3.3843   C.3       1 RES1   0.0000
    81 C30       0.6645   -5.9836   -3.0917   C.3       1 RES1   0.0000
    82 C31       2.0630   -6.4101   -3.5305   C.3       1 RES1   0.0000
    83 C32       2.3316   -7.8808   -3.2452   C.3       1 RES1   0.0000
    84 C33       2.9505   -3.0610   -2.5769   C.3       1 RES1   0.0000
    85 C34       3.3454   -2.4884   -3.9387   C.3       1 RES1   0.0000
    86 C35       4.7544   -1.8922   -3.8547   C.3       1 RES1   0.0000
    87 C36       5.8226   -2.9221   -3.5054   C.3       1 RES1   0.0000
    88 H41       8.0715   -0.1465    3.8818   H         1 RES1   0.0000
    89 H42       6.3957   -0.1890    4.3950   H         1 RES1   0.0000
    90 H43       6.8396    0.6529    2.9090   H         1 RES1   0.0000
    91 H44       7.0199   -2.3712    3.3588   H         1 RES1   0.0000
    92 H45       7.5902   -1.5247    1.9195   H         1 RES1   0.0000
    93 H46       5.4411   -2.3616    1.3374   H         1 RES1   0.0000
    94 H47       5.2530   -0.6177    1.6073   H         1 RES1   0.0000
    95 H48       4.4728   -1.1427    3.9790   H         1 RES1   0.0000
    96 H49       4.4665   -2.8572    3.5520   H         1 RES1   0.0000
    97 H50       0.5115   -1.2873    3.3456   H         1 RES1   0.0000
    98 H51       1.7839   -0.4557    4.2517   H         1 RES1   0.0000
    99 H52       0.9508   -2.1191    5.7386   H         1 RES1   0.0000
   100 H53       2.4964   -2.7400    5.1873   H         1 RES1   0.0000
   101 H54       1.3770   -4.2545    3.6110   H         1 RES1   0.0000
   102 H55      -0.1960   -3.5223    3.9596   H         1 RES1   0.0000
   103 H56       1.5526   -5.0526    5.9573   H         1 RES1   0.0000
   104 H57       0.1123   -5.6806    5.1666   H         1 RES1   0.0000
   105 H58      -0.0241   -4.3505    6.3149   H         1 RES1   0.0000
   106 H59       2.0722   -3.8628    1.8309   H         1 RES1   0.0000
   107 H60       3.4545   -3.2570    0.8665   H         1 RES1   0.0000
   108 H61       0.1139   -4.1031   -0.1871   H         1 RES1   0.0000
   109 H62       1.8151   -4.6597   -0.3490   H         1 RES1   0.0000
   110 H63       0.7004   -4.2479   -4.3974   H         1 RES1   0.0000
   111 H64      -0.6961   -4.2988   -3.3119   H         1 RES1   0.0000
   112 H65      -0.0702   -6.5814   -3.6346   H         1 RES1   0.0000
   113 H66       0.5152   -6.1879   -2.0277   H         1 RES1   0.0000
   114 H67       2.8094   -5.8161   -2.9994   H         1 RES1   0.0000
   115 H68       2.1747   -6.2210   -4.5996   H         1 RES1   0.0000
   116 H69       2.2424   -8.0935   -2.1825   H         1 RES1   0.0000
   117 H70       3.3374   -8.1411   -3.5596   H         1 RES1   0.0000
   118 H71       1.6298   -8.5085   -3.7868   H         1 RES1   0.0000
   119 H72       3.4117   -4.0376   -2.4276   H         1 RES1   0.0000
   120 H73       3.3113   -2.3921   -1.7863   H         1 RES1   0.0000
   121 H74       2.6375   -1.7042   -4.2270   H         1 RES1   0.0000
   122 H75       3.3174   -3.2608   -4.7092   H         1 RES1   0.0000
   123 H76       4.7620   -1.0953   -3.1099   H         1 RES1   0.0000
   124 H77       4.9974   -1.4463   -4.8194   H         1 RES1   0.0000
   125 H78       5.7224   -3.2698   -2.4800   H         1 RES1   0.0000
   126 H79       6.8100   -2.4807   -3.6093   H         1 RES1   0.0000
   127 H80       5.7630   -3.7804   -4.1672   H         1 RES1   0.0000
   128 C37       7.1729    1.5675   -2.6234   C.3       1 RES1   0.0000
   129 C38       6.6436    2.7512   -1.8243   C.3       1 RES1   0.0000
   130 C39       5.1622    2.5865   -1.4874   C.3       1 RES1   0.0000
   131 C40       4.2737    2.7282   -2.7269   C.3       1 RES1   0.0000
   132 P5        2.6051    2.0496   -2.4153   P.3       1 RES1   0.0000
   133 S5        2.7111    0.2470   -1.6239   S.3       1 RES1   0.0000
   134 C41       1.7338    1.8447   -4.0201   C.3       1 RES1   0.0000
   135 C42       1.4414    3.0883   -4.8450   C.3       1 RES1   0.0000
   136 C43       0.1717    3.8040   -4.3940   C.3       1 RES1   0.0000
   137 C44      -0.0562    5.0670   -5.2108   C.3       1 RES1   0.0000
   138 C45       1.9502    3.3266   -1.1923   C.3       1 RES1   0.0000
   139 O3        0.9836    2.7900   -0.3031   O.3       1 RES1   0.0000
   140 C46       0.2734    3.8057    0.4115   C.3       1 RES1   0.0000
   141 P6        0.3784    3.2592    2.2024   P.3       1 RES1   0.0000
   142 S6       -0.4217    1.4465    2.3292   S.3       1 RES1   0.0000
   143 C47      -0.5893    4.3240    3.3333   C.3       1 RES1   0.0000
   144 C48      -0.3439    5.8328    3.2775   C.3       1 RES1   0.0000
   145 C49       0.8770    6.3087    4.0671   C.3       1 RES1   0.0000
   146 C50       1.0096    7.8269    4.0258   C.3       1 RES1   0.0000
   147 C51       2.1774    3.3999    2.5502   C.3       1 RES1   0.0000
   148 C52       2.5618    2.9606    3.9648   C.3       1 RES1   0.0000
   149 C53       4.0659    2.6875    4.0520   C.3       1 RES1   0.0000
   150 C54       4.9111    3.9399    3.8469   C.3       1 RES1   0.0000
   151 H81       8.2427    1.6596   -2.7753   H         1 RES1   0.0000
   152 H82       6.7054    1.5098   -3.6016   H         1 RES1   0.0000
   153 H83       6.9783    0.6375   -2.0927   H         1 RES1   0.0000
   154 H84       6.7916    3.6816   -2.3754   H         1 RES1   0.0000
   155 H85       7.1964    2.8247   -0.8876   H         1 RES1   0.0000
   156 H86       4.8774    3.3319   -0.7402   H         1 RES1   0.0000
   157 H87       5.0119    1.5911   -1.0557   H         1 RES1   0.0000
   158 H88       4.6876    2.1575   -3.5617   H         1 RES1   0.0000
   159 H89       4.1989    3.7700   -3.0473   H         1 RES1   0.0000
   160 H90       0.8243    1.2670   -3.8212   H         1 RES1   0.0000
   161 H91       2.4361    1.1778   -4.5428   H         1 RES1   0.0000
   162 H92       1.3232    2.7776   -5.8854   H         1 RES1   0.0000
   163 H93       2.2958    3.7679   -4.8108   H         1 RES1   0.0000
   164 H94       0.2523    4.0572   -3.3331   H         1 RES1   0.0000
   165 H95      -0.6771    3.1255   -4.5046   H         1 RES1   0.0000
   166 H96       0.8051    5.7266   -5.1554   H         1 RES1   0.0000
   167 H97      -0.9236    5.6068   -4.8487   H         1 RES1   0.0000
   168 H98      -0.2257    4.8098   -6.2518   H         1 RES1   0.0000
   169 H99       1.5480    4.1823   -1.7478   H         1 RES1   0.0000
   170 H100      2.8388    3.6496   -0.6266   H         1 RES1   0.0000
   171 H101     -0.7636    3.8541    0.0470   H         1 RES1   0.0000
   172 H102      0.7520    4.7785    0.2676   H         1 RES1   0.0000
   173 H103     -0.3682    3.9209    4.3300   H         1 RES1   0.0000
   174 H104     -1.6370    4.0876    3.1086   H         1 RES1   0.0000
   175 H105     -1.2240    6.3224    3.6985   H         1 RES1   0.0000
   176 H106     -0.2692    6.1512    2.2333   H         1 RES1   0.0000
   177 H107      1.7890    5.8734    3.6580   H         1 RES1   0.0000
   178 H108      0.7870    5.9879    5.1076   H         1 RES1   0.0000
   179 H109      1.0675    8.1846    3.0000   H         1 RES1   0.0000
   180 H110      1.9112    8.1368    4.5441   H         1 RES1   0.0000
   181 H111      0.1586    8.2982    4.5106   H         1 RES1   0.0000
   182 H112      2.4620    4.4382    2.3709   H         1 RES1   0.0000
   183 H113      2.7008    2.7725    1.8198   H         1 RES1   0.0000
   184 H114      2.0133    2.0474    4.2209   H         1 RES1   0.0000
   185 H115      2.2904    3.7237    4.6972   H         1 RES1   0.0000
   186 H116      4.3412    1.9324    3.3133   H         1 RES1   0.0000
   187 H117      4.2808    2.2797    5.0410   H         1 RES1   0.0000
   188 H118      4.8572    4.2936    2.8196   H         1 RES1   0.0000
   189 H119      5.9520    3.7225    4.0682   H         1 RES1   0.0000
   190 H120      4.5822    4.7377    4.5066   H         1 RES1   0.0000
@<TRIPOS>BOND
     1     1     7    1
     2     1    13    1
     3     1    16    1
     4     1    70    1
     5     1    76    1
     6     1    79    1
     7     1   133    1
     8     1   139    1
     9     1   142    1
    10     2     3    1
    11     2    25    1
    12     2    26    1
    13     2    27    1
    14     3     4    1
    15     3    28    1
    16     3    29    1
    17     4     5    1
    18     4    30    1
    19     4    31    1
    20     5     6    1
    21     5    32    1
    22     5    33    1
    23     6     7    2
    24     6     8    1
    25     6    12    1
    26     8     9    1
    27     8    34    1
    28     8    35    1
    29     9    10    1
    30     9    36    1
    31     9    37    1
    32    10    11    1
    33    10    38    1
    34    10    39    1
    35    11    40    1
    36    11    41    1
    37    11    42    1
    38    12    13    1
    39    12    43    1
    40    12    44    1
    41    13    14    1
    42    14    15    1
    43    14    45    1
    44    14    46    1
    45    15    16    2
    46    15    17    1
    47    15    21    1
    48    17    18    1
    49    17    47    1
    50    17    48    1
    51    18    19    1
    52    18    49    1
    53    18    50    1
    54    19    20    1
    55    19    51    1
    56    19    52    1
    57    20    53    1
    58    20    54    1
    59    20    55    1
    60    21    22    1
    61    21    56    1
    62    21    57    1
    63    22    23    1
    64    22    58    1
    65    22    59    1
    66    23    24    1
    67    23    60    1
    68    23    61    1
    69    24    62    1
    70    24    63    1
    71    24    64    1
    72    65    66    1
    73    65    88    1
    74    65    89    1
    75    65    90    1
    76    66    67    1
    77    66    91    1
    78    66    92    1
    79    67    68    1
    80    67    93    1
    81    67    94    1
    82    68    69    1
    83    68    95    1
    84    68    96    1
    85    69    70    2
    86    69    71    1
    87    69    75    1
    88    71    72    1
    89    71    97    1
    90    71    98    1
    91    72    73    1
    92    72    99    1
    93    72   100    1
    94    73    74    1
    95    73   101    1
    96    73   102    1
    97    74   103    1
    98    74   104    1
    99    74   105    1
   100    75    76    1
   101    75   106    1
   102    75   107    1
   103    76    77    1
   104    77    78    1
   105    77   108    1
   106    77   109    1
   107    78    79    2
   108    78    80    1
   109    78    84    1
   110    80    81    1
   111    80   110    1
   112    80   111    1
   113    81    82    1
   114    81   112    1
   115    81   113    1
   116    82    83    1
   117    82   114    1
   118    82   115    1
   119    83   116    1
   120    83   117    1
   121    83   118    1
   122    84    85    1
   123    84   119    1
   124    84   120    1
   125    85    86    1
   126    85   121    1
   127    85   122    1
   128    86    87    1
   129    86   123    1
   130    86   124    1
   131    87   125    1
   132    87   126    1
   133    87   127    1
   134   128   129    1
   135   128   151    1
   136   128   152    1
   137   128   153    1
   138   129   130    1
   139   129   154    1
   140   129   155    1
   141   130   131    1
   142   130   156    1
   143   130   157    1
   144   131   132    1
   145   131   158    1
   146   131   159    1
   147   132   133    2
   148   132   134    1
   149   132   138    1
   150   134   135    1
   151   134   160    1
   152   134   161    1
   153   135   136    1
   154   135   162    1
   155   135   163    1
   156   136   137    1
   157   136   164    1
   158   136   165    1
   159   137   166    1
   160   137   167    1
   161   137   168    1
   162   138   139    1
   163   138   169    1
   164   138   170    1
   165   139   140    1
   166   140   141    1
   167   140   171    1
   168   140   172    1
   169   141   142    2
   170   141   143    1
   171   141   147    1
   172   143   144    1
   173   143   173    1
   174   143   174    1
   175   144   145    1
   176   144   175    1
   177   144   176    1
   178   145   146    1
   179   145   177    1
   180   145   178    1
   181   146   179    1
   182   146   180    1
   183   146   181    1
   184   147   148    1
   185   147   182    1
   186   147   183    1
   187   148   149    1
   188   148   184    1
   189   148   185    1
   190   149   150    1
   191   149   186    1
   192   149   187    1
   193   150   188    1
   194   150   189    1
   195   150   190    1
@<TRIPOS>SUBSTRUCTURE
     1 RES1      190 GROUP             0 ****  ****    0  
