@<TRIPOS>MOLECULE
am_c3_9H2O_c0_0_nunpairedes_0_charge_3 Charge: 3 Unpaired_Electrons: 2 XTB_Unpaired_Electrons: 0 XTB_Charge: 3
   322   327     1     0     0
SMALL
NoCharges
****
Generated from Architector

@<TRIPOS>ATOM
     1 Pr1       0.0996   -0.2210   -0.3135   Pr        1 RES1   0.0000
     2 C1       -6.2531   -6.2060   -2.4311   C.3       1 RES1   0.0000
     3 C2       -5.6569   -6.2859   -3.8318   C.3       1 RES1   0.0000
     4 C3       -6.5911   -5.7624   -4.9260   C.3       1 RES1   0.0000
     5 C4       -6.7193   -4.2388   -5.0096   C.3       1 RES1   0.0000
     6 C5       -5.4211   -3.5329   -5.3961   C.3       1 RES1   0.0000
     7 C6       -5.6439   -2.0286   -5.5413   C.3       1 RES1   0.0000
     8 C7       -4.4211   -1.2214   -6.0213   C.3       1 RES1   0.0000
     9 C8       -3.0722   -1.8624   -5.6765   C.3       1 RES1   0.0000
    10 C9       -1.8939   -1.1858   -6.4006   C.3       1 RES1   0.0000
    11 C10      -0.8108   -0.7497   -5.4211   C.3       1 RES1   0.0000
    12 C11       0.2353    0.1398   -6.0794   C.3       1 RES1   0.0000
    13 C12      -4.4995    0.2473   -5.5487   C.3       1 RES1   0.0000
    14 C13      -4.6520    0.4663   -4.0356   C.3       1 RES1   0.0000
    15 C14      -4.1234    1.8372   -3.5689   C.3       1 RES1   0.0000
    16 N1       -2.6955    1.7971   -3.2903   N.am      1 RES1   0.0000
    17 C15      -1.8095    2.3730   -4.2806   C.3       1 RES1   0.0000
    18 C16      -2.2015    1.1689   -2.2310   C.2       1 RES1   0.0000
    19 O1       -1.0188    0.7955   -2.1375   O.2       1 RES1   0.0000
    20 C17      -3.1178    0.9950   -1.0157   C.3       1 RES1   0.0000
    21 O2       -2.2236    0.8670    0.0740   O.3       1 RES1   0.0000
    22 C18      -2.8302    0.9349    1.3465   C.3       1 RES1   0.0000
    23 C19      -1.6526    1.1440    2.3040   C.2       1 RES1   0.0000
    24 O3       -0.5111    0.8692    1.8916   O.2       1 RES1   0.0000
    25 N2       -1.8901    1.6853    3.4926   N.am      1 RES1   0.0000
    26 C20      -0.7844    2.2124    4.2659   C.3       1 RES1   0.0000
    27 C21      -3.2148    1.8438    4.0784   C.3       1 RES1   0.0000
    28 C22      -3.8261    0.5333    4.6079   C.3       1 RES1   0.0000
    29 C23      -3.2623    0.0352    5.9518   C.3       1 RES1   0.0000
    30 C24      -2.1631   -1.0346    5.8611   C.3       1 RES1   0.0000
    31 C25      -2.7255   -2.4647    5.7579   C.3       1 RES1   0.0000
    32 C26      -3.6503   -2.7698    4.5837   C.3       1 RES1   0.0000
    33 C27      -4.1163   -4.2315    4.5686   C.3       1 RES1   0.0000
    34 C28      -2.9974   -5.2691    4.5295   C.3       1 RES1   0.0000
    35 C29      -1.2994   -1.0111    7.1395   C.3       1 RES1   0.0000
    36 C30      -0.2571    0.1012    7.2603   C.3       1 RES1   0.0000
    37 C31       0.8906   -0.0609    6.2670   C.3       1 RES1   0.0000
    38 C32       1.9103    1.0738    6.3274   C.3       1 RES1   0.0000
    39 C33       2.9803    0.9184    5.2491   C.3       1 RES1   0.0000
    40 C34       4.0205    2.0289    5.3003   C.3       1 RES1   0.0000
    41 H1       -5.5819   -6.6673   -1.7089   H         1 RES1   0.0000
    42 H2       -7.1985   -6.7390   -2.3934   H         1 RES1   0.0000
    43 H3       -6.4364   -5.1776   -2.1289   H         1 RES1   0.0000
    44 H4       -5.4376   -7.3319   -4.0497   H         1 RES1   0.0000
    45 H5       -4.7080   -5.7453   -3.8616   H         1 RES1   0.0000
    46 H6       -7.5833   -6.1862   -4.7597   H         1 RES1   0.0000
    47 H7       -6.2406   -6.1277   -5.8925   H         1 RES1   0.0000
    48 H8       -7.0842   -3.8429   -4.0591   H         1 RES1   0.0000
    49 H9       -7.4746   -4.0060   -5.7633   H         1 RES1   0.0000
    50 H10      -5.0653   -3.9449   -6.3405   H         1 RES1   0.0000
    51 H11      -4.6617   -3.7183   -4.6349   H         1 RES1   0.0000
    52 H12      -5.9956   -1.6473   -4.5834   H         1 RES1   0.0000
    53 H13      -6.4517   -1.8733   -6.2567   H         1 RES1   0.0000
    54 H14      -4.4601   -1.1939   -7.1150   H         1 RES1   0.0000
    55 H15      -3.0951   -2.9071   -5.9734   H         1 RES1   0.0000
    56 H16      -2.9025   -1.8328   -4.5992   H         1 RES1   0.0000
    57 H17      -2.2405   -0.3224   -6.9707   H         1 RES1   0.0000
    58 H18      -1.4554   -1.8715   -7.1267   H         1 RES1   0.0000
    59 H19      -0.3410   -1.6471   -5.0139   H         1 RES1   0.0000
    60 H20      -1.2584   -0.2291   -4.5728   H         1 RES1   0.0000
    61 H21       0.7701   -0.4090   -6.8491   H         1 RES1   0.0000
    62 H22       0.9487    0.4999   -5.3409   H         1 RES1   0.0000
    63 H23      -0.2257    1.0031   -6.5516   H         1 RES1   0.0000
    64 H24      -5.3397    0.7290   -6.0511   H         1 RES1   0.0000
    65 H25      -3.5960    0.7584   -5.8821   H         1 RES1   0.0000
    66 H26      -4.1251   -0.3177   -3.4912   H         1 RES1   0.0000
    67 H27      -5.7083    0.4171   -3.7738   H         1 RES1   0.0000
    68 H28      -4.6659    2.1797   -2.6834   H         1 RES1   0.0000
    69 H29      -4.2875    2.5782   -4.3519   H         1 RES1   0.0000
    70 H30      -1.9534    1.9114   -5.2544   H         1 RES1   0.0000
    71 H31      -0.7802    2.2415   -3.9547   H         1 RES1   0.0000
    72 H32      -2.0401    3.4363   -4.3627   H         1 RES1   0.0000
    73 H33      -3.7690    0.1194   -1.1155   H         1 RES1   0.0000
    74 H34      -3.7436    1.8879   -0.8731   H         1 RES1   0.0000
    75 H35      -3.3953    0.0187    1.5733   H         1 RES1   0.0000
    76 H36      -3.5267    1.7847    1.3874   H         1 RES1   0.0000
    77 H37       0.1527    1.9367    3.7833   H         1 RES1   0.0000
    78 H38      -0.8102    1.8180    5.2781   H         1 RES1   0.0000
    79 H39      -0.8749    3.3006    4.3146   H         1 RES1   0.0000
    80 H40      -3.8924    2.2837    3.3419   H         1 RES1   0.0000
    81 H41      -3.1198    2.5531    4.8993   H         1 RES1   0.0000
    82 H42      -3.7152   -0.2314    3.8423   H         1 RES1   0.0000
    83 H43      -4.8960    0.7176    4.7269   H         1 RES1   0.0000
    84 H44      -4.0750   -0.3801    6.5465   H         1 RES1   0.0000
    85 H45      -2.8888    0.8934    6.5096   H         1 RES1   0.0000
    86 H46      -1.5476   -0.8268    4.9757   H         1 RES1   0.0000
    87 H47      -3.2616   -2.6936    6.6801   H         1 RES1   0.0000
    88 H48      -1.8734   -3.1454    5.7041   H         1 RES1   0.0000
    89 H49      -3.1328   -2.5290    3.6476   H         1 RES1   0.0000
    90 H50      -4.5399   -2.1418    4.6387   H         1 RES1   0.0000
    91 H51      -4.7731   -4.3784    3.7052   H         1 RES1   0.0000
    92 H52      -4.7186   -4.4053    5.4603   H         1 RES1   0.0000
    93 H53      -2.3078   -5.0929    3.7034   H         1 RES1   0.0000
    94 H54      -3.4255   -6.2598    4.4042   H         1 RES1   0.0000
    95 H55      -2.4334   -5.2710    5.4576   H         1 RES1   0.0000
    96 H56      -0.7730   -1.9635    7.2314   H         1 RES1   0.0000
    97 H57      -1.9858   -0.9475    7.9852   H         1 RES1   0.0000
    98 H58       0.1551    0.0583    8.2685   H         1 RES1   0.0000
    99 H59      -0.7223    1.0819    7.1585   H         1 RES1   0.0000
   100 H60       0.5054   -0.1298    5.2456   H         1 RES1   0.0000
   101 H61       1.4009   -0.9974    6.4922   H         1 RES1   0.0000
   102 H62       2.3848    1.0802    7.3074   H         1 RES1   0.0000
   103 H63       1.4116    2.0362    6.1996   H         1 RES1   0.0000
   104 H64       2.4997    0.9021    4.2645   H         1 RES1   0.0000
   105 H65       3.4798   -0.0409    5.3855   H         1 RES1   0.0000
   106 H66       3.5556    3.0024    5.1672   H         1 RES1   0.0000
   107 H67       4.7703    1.8909    4.5242   H         1 RES1   0.0000
   108 H68       4.5275    2.0285    6.2606   H         1 RES1   0.0000
   109 C35      -0.8443    5.3167   -6.4489   C.3       1 RES1   0.0000
   110 C36      -0.8259    6.7811   -6.0264   C.3       1 RES1   0.0000
   111 C37      -1.8628    7.1264   -4.9419   C.3       1 RES1   0.0000
   112 C38      -1.2906    7.4565   -3.5553   C.3       1 RES1   0.0000
   113 C39      -0.9992    6.2367   -2.6708   C.3       1 RES1   0.0000
   114 C40       0.3846    5.6073   -2.8608   C.3       1 RES1   0.0000
   115 C41       1.5526    6.4709   -2.3380   C.3       1 RES1   0.0000
   116 C42       2.6404    6.7422   -3.3954   C.3       1 RES1   0.0000
   117 C43       3.5573    5.5904   -3.8205   C.3       1 RES1   0.0000
   118 C44       2.9358    4.5454   -4.7501   C.3       1 RES1   0.0000
   119 C45       4.0103    3.8075   -5.5423   C.3       1 RES1   0.0000
   120 C46       2.1663    5.8820   -1.0562   C.3       1 RES1   0.0000
   121 C47       1.2883    6.0629    0.1972   C.3       1 RES1   0.0000
   122 C48       0.6531    4.7715    0.7241   C.3       1 RES1   0.0000
   123 N3        1.6584    3.7285    0.8905   N.am      1 RES1   0.0000
   124 C49       2.7871    4.0336    1.7475   C.3       1 RES1   0.0000
   125 C50       1.5571    2.5824    0.2335   C.2       1 RES1   0.0000
   126 O4        0.5394    2.2250   -0.3894   O.2       1 RES1   0.0000
   127 C51       2.7571    1.6222    0.2061   C.3       1 RES1   0.0000
   128 O5        2.4683    0.5771   -0.7100   O.3       1 RES1   0.0000
   129 C52       2.8390    0.8657   -2.0606   C.3       1 RES1   0.0000
   130 C53       2.3419   -0.3357   -2.8868   C.2       1 RES1   0.0000
   131 O6        1.3507   -0.9470   -2.4362   O.2       1 RES1   0.0000
   132 N4        3.0035   -0.6838   -3.9862   N.am      1 RES1   0.0000
   133 C54       3.9807    0.1729   -4.6299   C.3       1 RES1   0.0000
   134 C55       2.6348   -1.8790   -4.7596   C.3       1 RES1   0.0000
   135 C56       3.2044   -3.1894   -4.1862   C.3       1 RES1   0.0000
   136 C57       4.4723   -3.8046   -4.7893   C.3       1 RES1   0.0000
   137 C58       4.6344   -5.2362   -4.2235   C.3       1 RES1   0.0000
   138 C59       3.6339   -6.2279   -4.8629   C.3       1 RES1   0.0000
   139 C60       2.7892   -7.0302   -3.8630   C.3       1 RES1   0.0000
   140 C61       3.5942   -7.8183   -2.8276   C.3       1 RES1   0.0000
   141 C62       2.6903   -8.5147   -1.8112   C.3       1 RES1   0.0000
   142 C63       6.0504   -5.8137   -4.3801   C.3       1 RES1   0.0000
   143 C64       7.1718   -5.1535   -3.5753   C.3       1 RES1   0.0000
   144 C65       7.0818   -5.2812   -2.0488   C.3       1 RES1   0.0000
   145 C66       7.5258   -6.6340   -1.4752   C.3       1 RES1   0.0000
   146 C67       8.2076   -6.4948   -0.1105   C.3       1 RES1   0.0000
   147 C68       7.3056   -5.8796    0.9551   C.3       1 RES1   0.0000
   148 H69      -0.1651    5.1593   -7.2807   H         1 RES1   0.0000
   149 H70      -1.8418    5.0330   -6.7723   H         1 RES1   0.0000
   150 H71      -0.5451    4.6554   -5.6392   H         1 RES1   0.0000
   151 H72      -1.0274    7.3827   -6.9119   H         1 RES1   0.0000
   152 H73       0.1711    7.0562   -5.6795   H         1 RES1   0.0000
   153 H74      -2.5824    6.3078   -4.8466   H         1 RES1   0.0000
   154 H75      -2.4301    7.9970   -5.2735   H         1 RES1   0.0000
   155 H76      -2.0304    8.0683   -3.0358   H         1 RES1   0.0000
   156 H77      -0.3945    8.0684   -3.6672   H         1 RES1   0.0000
   157 H78      -1.7619    5.4772   -2.8753   H         1 RES1   0.0000
   158 H79      -1.1125    6.5249   -1.6234   H         1 RES1   0.0000
   159 H80       0.5250    5.4107   -3.9200   H         1 RES1   0.0000
   160 H81       0.3966    4.6359   -2.3520   H         1 RES1   0.0000
   161 H82       1.1587    7.4595   -2.0748   H         1 RES1   0.0000
   162 H83       3.2850    7.5255   -2.9929   H         1 RES1   0.0000
   163 H84       2.1640    7.1497   -4.2888   H         1 RES1   0.0000
   164 H85       3.9834    5.0971   -2.9451   H         1 RES1   0.0000
   165 H86       4.3905    6.0447   -4.3588   H         1 RES1   0.0000
   166 H87       2.2674    5.0363   -5.4601   H         1 RES1   0.0000
   167 H88       2.3441    3.8223   -4.1770   H         1 RES1   0.0000
   168 H89       4.5992    4.5142   -6.1208   H         1 RES1   0.0000
   169 H90       3.5619    3.0982   -6.2354   H         1 RES1   0.0000
   170 H91       4.6894    3.2698   -4.8830   H         1 RES1   0.0000
   171 H92       3.1261    6.3747   -0.8899   H         1 RES1   0.0000
   172 H93       2.3709    4.8224   -1.2170   H         1 RES1   0.0000
   173 H94       0.4871    6.7681   -0.0221   H         1 RES1   0.0000
   174 H95       1.8877    6.5045    0.9932   H         1 RES1   0.0000
   175 H96      -0.1081    4.3837    0.0450   H         1 RES1   0.0000
   176 H97       0.1892    4.9665    1.6948   H         1 RES1   0.0000
   177 H98       2.4576    4.7113    2.5311   H         1 RES1   0.0000
   178 H99       3.5966    4.5107    1.1922   H         1 RES1   0.0000
   179 H100      3.1566    3.1308    2.2295   H         1 RES1   0.0000
   180 H101      2.8660    1.1379    1.1840   H         1 RES1   0.0000
   181 H102      3.6899    2.1292   -0.0570   H         1 RES1   0.0000
   182 H103      3.9297    0.9992   -2.1121   H         1 RES1   0.0000
   183 H104      2.3452    1.7841   -2.4170   H         1 RES1   0.0000
   184 H105      4.6478    0.6597   -3.9261   H         1 RES1   0.0000
   185 H106      3.4796    0.9333   -5.2261   H         1 RES1   0.0000
   186 H107      4.5959   -0.4274   -5.2983   H         1 RES1   0.0000
   187 H108      2.9685   -1.7352   -5.7867   H         1 RES1   0.0000
   188 H109      1.5470   -1.9475   -4.7637   H         1 RES1   0.0000
   189 H110      2.4244   -3.9507   -4.2793   H         1 RES1   0.0000
   190 H111      3.3919   -3.0177   -3.1285   H         1 RES1   0.0000
   191 H112      5.3465   -3.2124   -4.5126   H         1 RES1   0.0000
   192 H113      4.4175   -3.8273   -5.8795   H         1 RES1   0.0000
   193 H114      4.4274   -5.1629   -3.1527   H         1 RES1   0.0000
   194 H115      4.1901   -6.9391   -5.4726   H         1 RES1   0.0000
   195 H116      2.9527   -5.6976   -5.5370   H         1 RES1   0.0000
   196 H117      2.1674   -7.7328   -4.4225   H         1 RES1   0.0000
   197 H118      2.1038   -6.3637   -3.3361   H         1 RES1   0.0000
   198 H119      4.2721   -7.1524   -2.2953   H         1 RES1   0.0000
   199 H120      4.1983   -8.5687   -3.3401   H         1 RES1   0.0000
   200 H121      2.0235   -7.8041   -1.3192   H         1 RES1   0.0000
   201 H122      3.2921   -8.9975   -1.0433   H         1 RES1   0.0000
   202 H123      2.0797   -9.2707   -2.2972   H         1 RES1   0.0000
   203 H124      6.3123   -5.7671   -5.4377   H         1 RES1   0.0000
   204 H125      6.0157   -6.8644   -4.0918   H         1 RES1   0.0000
   205 H126      7.2262   -4.0950   -3.8359   H         1 RES1   0.0000
   206 H127      8.1125   -5.6042   -3.8956   H         1 RES1   0.0000
   207 H128      6.0613   -5.0716   -1.7202   H         1 RES1   0.0000
   208 H129      7.7328   -4.5143   -1.6202   H         1 RES1   0.0000
   209 H130      8.2321   -7.1046   -2.1587   H         1 RES1   0.0000
   210 H131      6.6727   -7.3072   -1.3749   H         1 RES1   0.0000
   211 H132      9.1032   -5.8795   -0.2169   H         1 RES1   0.0000
   212 H133      8.5262   -7.4822    0.2296   H         1 RES1   0.0000
   213 H134      7.0363   -4.8595    0.6926   H         1 RES1   0.0000
   214 H135      7.8137   -5.8540    1.9155   H         1 RES1   0.0000
   215 H136      6.3951   -6.4615    1.0706   H         1 RES1   0.0000
   216 C69       7.5412   -0.9496   -4.5889   C.3       1 RES1   0.0000
   217 C70       8.0513   -1.2366   -3.1813   C.3       1 RES1   0.0000
   218 C71       7.1253   -0.7959   -2.0425   C.3       1 RES1   0.0000
   219 C72       5.8160   -1.5906   -1.9647   C.3       1 RES1   0.0000
   220 C73       5.1734   -1.4964   -0.5745   C.3       1 RES1   0.0000
   221 C74       3.7965   -2.1738   -0.4506   C.3       1 RES1   0.0000
   222 C75       3.8190   -3.6561   -0.0382   C.3       1 RES1   0.0000
   223 C76       2.7419   -4.4772   -0.7715   C.3       1 RES1   0.0000
   224 C77       1.2740   -3.9961   -0.7078   C.3       1 RES1   0.0000
   225 C78       0.6460   -4.1765   -2.0936   C.3       1 RES1   0.0000
   226 C79      -0.8669   -4.0628   -2.2015   C.3       1 RES1   0.0000
   227 C80       3.6538   -3.8992    1.4677   C.3       1 RES1   0.0000
   228 C81       4.5573   -3.1009    2.4194   C.3       1 RES1   0.0000
   229 C82       3.9244   -1.8103    2.9602   C.3       1 RES1   0.0000
   230 N5        2.5479   -2.0529    3.3677   N.am      1 RES1   0.0000
   231 C83       2.3540   -2.9500    4.4879   C.3       1 RES1   0.0000
   232 C84       1.5535   -1.7237    2.5529   C.2       1 RES1   0.0000
   233 O7        1.6600   -0.9278    1.5988   O.2       1 RES1   0.0000
   234 C85       0.2057   -2.4077    2.7886   C.3       1 RES1   0.0000
   235 O8       -0.6020   -2.1378    1.6554   O.3       1 RES1   0.0000
   236 C86      -1.5447   -3.1596    1.3858   C.3       1 RES1   0.0000
   237 C87      -2.3307   -2.6991    0.1704   C.2       1 RES1   0.0000
   238 O9       -1.9423   -1.6757   -0.4309   O.2       1 RES1   0.0000
   239 N6       -3.3800   -3.4137   -0.2079   N.am      1 RES1   0.0000
   240 C88      -3.7406   -4.6615    0.4296   C.3       1 RES1   0.0000
   241 C89      -4.2783   -2.9272   -1.2484   C.3       1 RES1   0.0000
   242 C90      -5.5489   -2.3650   -0.6051   C.3       1 RES1   0.0000
   243 C91      -6.5892   -1.9272   -1.6352   C.3       1 RES1   0.0000
   244 C92      -7.8905   -1.4186   -0.9806   C.3       1 RES1   0.0000
   245 C93      -8.0911    0.0807   -1.2429   C.3       1 RES1   0.0000
   246 C94      -7.0758    1.0152   -0.5873   C.3       1 RES1   0.0000
   247 C95      -7.1531    1.0269    0.9407   C.3       1 RES1   0.0000
   248 C96      -6.6095    2.3277    1.5221   C.3       1 RES1   0.0000
   249 C97      -9.1401   -2.1459   -1.5016   C.3       1 RES1   0.0000
   250 C98      -9.1852   -3.6677   -1.3431   C.3       1 RES1   0.0000
   251 C99      -8.9400   -4.1999    0.0677   C.3       1 RES1   0.0000
   252 C100     -9.9157   -3.6595    1.1103   C.3       1 RES1   0.0000
   253 C101     -9.8222   -4.4115    2.4389   C.3       1 RES1   0.0000
   254 C102     -8.4562   -4.2902    3.1070   C.3       1 RES1   0.0000
   255 H137      8.3174   -1.1701   -5.3108   H         1 RES1   0.0000
   256 H138      7.2698    0.0932   -4.7064   H         1 RES1   0.0000
   257 H139      6.6813   -1.5647   -4.8323   H         1 RES1   0.0000
   258 H140      9.0018   -0.7238   -3.0561   H         1 RES1   0.0000
   259 H141      8.2441   -2.3035   -3.0893   H         1 RES1   0.0000
   260 H142      6.9112    0.2693   -2.1530   H         1 RES1   0.0000
   261 H143      7.6734   -0.9220   -1.1013   H         1 RES1   0.0000
   262 H144      6.0140   -2.6305   -2.2097   H         1 RES1   0.0000
   263 H145      5.1201   -1.2065   -2.7127   H         1 RES1   0.0000
   264 H146      5.0821   -0.4405   -0.3216   H         1 RES1   0.0000
   265 H147      5.8678   -1.9381    0.1383   H         1 RES1   0.0000
   266 H148      3.3031   -2.0914   -1.4178   H         1 RES1   0.0000
   267 H149      3.1806   -1.6231    0.2645   H         1 RES1   0.0000
   268 H150      4.7890   -4.0713   -0.3329   H         1 RES1   0.0000
   269 H151      2.7767   -5.4991   -0.3927   H         1 RES1   0.0000
   270 H152      3.0266   -4.5378   -1.8172   H         1 RES1   0.0000
   271 H153      1.1806   -2.9297   -0.4002   H         1 RES1   0.0000
   272 H154      0.7320   -4.6114    0.0173   H         1 RES1   0.0000
   273 H155      0.9226   -5.1653   -2.4571   H         1 RES1   0.0000
   274 H156      1.0650   -3.4248   -2.7543   H         1 RES1   0.0000
   275 H157     -1.3667   -4.7848   -1.5557   H         1 RES1   0.0000
   276 H158     -1.1646   -4.2719   -3.2302   H         1 RES1   0.0000
   277 H159     -1.1838   -3.0477   -1.9713   H         1 RES1   0.0000
   278 H160      3.8452   -4.9607    1.6390   H         1 RES1   0.0000
   279 H161      2.6043   -3.7320    1.7117   H         1 RES1   0.0000
   280 H162      5.4929   -2.8399    1.9259   H         1 RES1   0.0000
   281 H163      4.8149   -3.7353    3.2679   H         1 RES1   0.0000
   282 H164      3.9110   -1.0220    2.2108   H         1 RES1   0.0000
   283 H165      4.4902   -1.4541    3.8237   H         1 RES1   0.0000
   284 H166      3.2117   -2.8895    5.1497   H         1 RES1   0.0000
   285 H167      2.2564   -3.9925    4.1733   H         1 RES1   0.0000
   286 H168      1.4722   -2.6642    5.0547   H         1 RES1   0.0000
   287 H169     -0.2628   -2.0339    3.7124   H         1 RES1   0.0000
   288 H170      0.3644   -3.4913    2.8969   H         1 RES1   0.0000
   289 H171     -2.2074   -3.3229    2.2454   H         1 RES1   0.0000
   290 H172     -1.0333   -4.1079    1.1650   H         1 RES1   0.0000
   291 H173     -4.0699   -4.5102    1.4592   H         1 RES1   0.0000
   292 H174     -2.9041   -5.3593    0.4221   H         1 RES1   0.0000
   293 H175     -4.5594   -5.1207   -0.1253   H         1 RES1   0.0000
   294 H176     -4.5339   -3.7517   -1.9159   H         1 RES1   0.0000
   295 H177     -3.7494   -2.1727   -1.8310   H         1 RES1   0.0000
   296 H178     -5.2923   -1.5241    0.0455   H         1 RES1   0.0000
   297 H179     -5.9834   -3.1477    0.0216   H         1 RES1   0.0000
   298 H180     -6.8106   -2.7716   -2.2848   H         1 RES1   0.0000
   299 H181     -6.1683   -1.1446   -2.2676   H         1 RES1   0.0000
   300 H182     -7.8251   -1.5809    0.0975   H         1 RES1   0.0000
   301 H183     -9.0828    0.3661   -0.8893   H         1 RES1   0.0000
   302 H184     -8.0768    0.2420   -2.3237   H         1 RES1   0.0000
   303 H185     -7.2857    2.0260   -0.9425   H         1 RES1   0.0000
   304 H186     -6.0622    0.7611   -0.9100   H         1 RES1   0.0000
   305 H187     -6.6072    0.1768    1.3591   H         1 RES1   0.0000
   306 H188     -8.1955    0.9286    1.2425   H         1 RES1   0.0000
   307 H189     -5.5931    2.5211    1.1768   H         1 RES1   0.0000
   308 H190     -6.6107    2.2941    2.6092   H         1 RES1   0.0000
   309 H191     -7.2316    3.1632    1.2119   H         1 RES1   0.0000
   310 H192     -9.2495   -1.9116   -2.5637   H         1 RES1   0.0000
   311 H193    -10.0046   -1.7245   -0.9869   H         1 RES1   0.0000
   312 H194     -8.4700   -4.1390   -2.0200   H         1 RES1   0.0000
   313 H195    -10.1760   -3.9898   -1.6666   H         1 RES1   0.0000
   314 H196     -7.9182   -3.9695    0.3732   H         1 RES1   0.0000
   315 H197     -9.0351   -5.2881    0.0348   H         1 RES1   0.0000
   316 H198    -10.9335   -3.7552    0.7278   H         1 RES1   0.0000
   317 H199     -9.7286   -2.5979    1.2879   H         1 RES1   0.0000
   318 H200    -10.0441   -5.4669    2.2701   H         1 RES1   0.0000
   319 H201    -10.5808   -4.0185    3.1183   H         1 RES1   0.0000
   320 H202     -8.4768   -4.7607    4.0864   H         1 RES1   0.0000
   321 H203     -7.6881   -4.7848    2.5159   H         1 RES1   0.0000
   322 H204     -8.1833   -3.2440    3.2352   H         1 RES1   0.0000
@<TRIPOS>BOND
     1     1    19    1
     2     1    21    1
     3     1    24    1
     4     1   126    1
     5     1   128    1
     6     1   131    1
     7     1   233    1
     8     1   235    1
     9     1   238    1
    10     2     3    1
    11     2    41    1
    12     2    42    1
    13     2    43    1
    14     3     4    1
    15     3    44    1
    16     3    45    1
    17     4     5    1
    18     4    46    1
    19     4    47    1
    20     5     6    1
    21     5    48    1
    22     5    49    1
    23     6     7    1
    24     6    50    1
    25     6    51    1
    26     7     8    1
    27     7    52    1
    28     7    53    1
    29     8     9    1
    30     8    13    1
    31     8    54    1
    32     9    10    1
    33     9    55    1
    34     9    56    1
    35    10    11    1
    36    10    57    1
    37    10    58    1
    38    11    12    1
    39    11    59    1
    40    11    60    1
    41    12    61    1
    42    12    62    1
    43    12    63    1
    44    13    14    1
    45    13    64    1
    46    13    65    1
    47    14    15    1
    48    14    66    1
    49    14    67    1
    50    15    16    1
    51    15    68    1
    52    15    69    1
    53    16    17    1
    54    16    18    1
    55    17    70    1
    56    17    71    1
    57    17    72    1
    58    18    19    2
    59    18    20    1
    60    20    21    1
    61    20    73    1
    62    20    74    1
    63    21    22    1
    64    22    23    1
    65    22    75    1
    66    22    76    1
    67    23    24    2
    68    23    25    1
    69    25    26    1
    70    25    27    1
    71    26    77    1
    72    26    78    1
    73    26    79    1
    74    27    28    1
    75    27    80    1
    76    27    81    1
    77    28    29    1
    78    28    82    1
    79    28    83    1
    80    29    30    1
    81    29    84    1
    82    29    85    1
    83    30    31    1
    84    30    35    1
    85    30    86    1
    86    31    32    1
    87    31    87    1
    88    31    88    1
    89    32    33    1
    90    32    89    1
    91    32    90    1
    92    33    34    1
    93    33    91    1
    94    33    92    1
    95    34    93    1
    96    34    94    1
    97    34    95    1
    98    35    36    1
    99    35    96    1
   100    35    97    1
   101    36    37    1
   102    36    98    1
   103    36    99    1
   104    37    38    1
   105    37   100    1
   106    37   101    1
   107    38    39    1
   108    38   102    1
   109    38   103    1
   110    39    40    1
   111    39   104    1
   112    39   105    1
   113    40   106    1
   114    40   107    1
   115    40   108    1
   116   109   110    1
   117   109   148    1
   118   109   149    1
   119   109   150    1
   120   110   111    1
   121   110   151    1
   122   110   152    1
   123   111   112    1
   124   111   153    1
   125   111   154    1
   126   112   113    1
   127   112   155    1
   128   112   156    1
   129   113   114    1
   130   113   157    1
   131   113   158    1
   132   114   115    1
   133   114   159    1
   134   114   160    1
   135   115   116    1
   136   115   120    1
   137   115   161    1
   138   116   117    1
   139   116   162    1
   140   116   163    1
   141   117   118    1
   142   117   164    1
   143   117   165    1
   144   118   119    1
   145   118   166    1
   146   118   167    1
   147   119   168    1
   148   119   169    1
   149   119   170    1
   150   120   121    1
   151   120   171    1
   152   120   172    1
   153   121   122    1
   154   121   173    1
   155   121   174    1
   156   122   123    1
   157   122   175    1
   158   122   176    1
   159   123   124    1
   160   123   125    1
   161   124   177    1
   162   124   178    1
   163   124   179    1
   164   125   126    2
   165   125   127    1
   166   127   128    1
   167   127   180    1
   168   127   181    1
   169   128   129    1
   170   129   130    1
   171   129   182    1
   172   129   183    1
   173   130   131    2
   174   130   132    1
   175   132   133    1
   176   132   134    1
   177   133   184    1
   178   133   185    1
   179   133   186    1
   180   134   135    1
   181   134   187    1
   182   134   188    1
   183   135   136    1
   184   135   189    1
   185   135   190    1
   186   136   137    1
   187   136   191    1
   188   136   192    1
   189   137   138    1
   190   137   142    1
   191   137   193    1
   192   138   139    1
   193   138   194    1
   194   138   195    1
   195   139   140    1
   196   139   196    1
   197   139   197    1
   198   140   141    1
   199   140   198    1
   200   140   199    1
   201   141   200    1
   202   141   201    1
   203   141   202    1
   204   142   143    1
   205   142   203    1
   206   142   204    1
   207   143   144    1
   208   143   205    1
   209   143   206    1
   210   144   145    1
   211   144   207    1
   212   144   208    1
   213   145   146    1
   214   145   209    1
   215   145   210    1
   216   146   147    1
   217   146   211    1
   218   146   212    1
   219   147   213    1
   220   147   214    1
   221   147   215    1
   222   216   217    1
   223   216   255    1
   224   216   256    1
   225   216   257    1
   226   217   218    1
   227   217   258    1
   228   217   259    1
   229   218   219    1
   230   218   260    1
   231   218   261    1
   232   219   220    1
   233   219   262    1
   234   219   263    1
   235   220   221    1
   236   220   264    1
   237   220   265    1
   238   221   222    1
   239   221   266    1
   240   221   267    1
   241   222   223    1
   242   222   227    1
   243   222   268    1
   244   223   224    1
   245   223   269    1
   246   223   270    1
   247   224   225    1
   248   224   271    1
   249   224   272    1
   250   225   226    1
   251   225   273    1
   252   225   274    1
   253   226   275    1
   254   226   276    1
   255   226   277    1
   256   227   228    1
   257   227   278    1
   258   227   279    1
   259   228   229    1
   260   228   280    1
   261   228   281    1
   262   229   230    1
   263   229   282    1
   264   229   283    1
   265   230   231    1
   266   230   232    1
   267   231   284    1
   268   231   285    1
   269   231   286    1
   270   232   233    2
   271   232   234    1
   272   234   235    1
   273   234   287    1
   274   234   288    1
   275   235   236    1
   276   236   237    1
   277   236   289    1
   278   236   290    1
   279   237   238    2
   280   237   239    1
   281   239   240    1
   282   239   241    1
   283   240   291    1
   284   240   292    1
   285   240   293    1
   286   241   242    1
   287   241   294    1
   288   241   295    1
   289   242   243    1
   290   242   296    1
   291   242   297    1
   292   243   244    1
   293   243   298    1
   294   243   299    1
   295   244   245    1
   296   244   249    1
   297   244   300    1
   298   245   246    1
   299   245   301    1
   300   245   302    1
   301   246   247    1
   302   246   303    1
   303   246   304    1
   304   247   248    1
   305   247   305    1
   306   247   306    1
   307   248   307    1
   308   248   308    1
   309   248   309    1
   310   249   250    1
   311   249   310    1
   312   249   311    1
   313   250   251    1
   314   250   312    1
   315   250   313    1
   316   251   252    1
   317   251   314    1
   318   251   315    1
   319   252   253    1
   320   252   316    1
   321   252   317    1
   322   253   254    1
   323   253   318    1
   324   253   319    1
   325   254   320    1
   326   254   321    1
   327   254   322    1
@<TRIPOS>SUBSTRUCTURE
     1 RES1      322 GROUP             0 ****  ****    0  
