@<TRIPOS>MOLECULE
tri_tri_mer_capped_0_nunpairedes_0_charge_3 Charge: 3 Unpaired_Electrons: 2 XTB_Unpaired_Electrons: 0 XTB_Charge: 3
   394   399     1     0     0
SMALL
NoCharges
****
Generated from Architector

@<TRIPOS>ATOM
     1 Pr1       0.0867   -0.1188    0.0914   Pr        1 RES1   0.0000
     2 C1        1.7392    8.1595    6.0185   C.3       1 RES1   0.0000
     3 C2        2.3416    7.1229    6.9634   C.3       1 RES1   0.0000
     4 C3        2.1781    5.6789    6.4720   C.3       1 RES1   0.0000
     5 C4        0.7332    5.1716    6.5949   C.3       1 RES1   0.0000
     6 C5        0.5867    3.6486    6.8096   C.3       1 RES1   0.0000
     7 C6       -0.0399    2.8654    5.6409   C.3       1 RES1   0.0000
     8 C7        0.9564    2.4258    4.5447   C.3       1 RES1   0.0000
     9 C8        1.2380    0.9184    4.6243   C.3       1 RES1   0.0000
    10 N1        2.4445    0.4378    3.9413   N.am      1 RES1   0.0000
    11 C9        3.7033    0.5953    4.6681   C.3       1 RES1   0.0000
    12 C10       3.7758    0.0345    6.0980   C.3       1 RES1   0.0000
    13 C11       3.8738   -1.4933    6.2264   C.3       1 RES1   0.0000
    14 C12       3.1411   -2.0001    7.4776   C.3       1 RES1   0.0000
    15 C13       3.1797   -3.5298    7.6518   C.3       1 RES1   0.0000
    16 C14       1.8240   -4.1354    8.0669   C.3       1 RES1   0.0000
    17 C15       1.4460   -5.3286    7.1907   C.3       1 RES1   0.0000
    18 C16      -0.0110   -5.7469    7.3275   C.3       1 RES1   0.0000
    19 C17       2.3009    0.1715    2.6320   C.2       1 RES1   0.0000
    20 O1        1.2294    0.4550    2.0678   O.2       1 RES1   0.0000
    21 C18       3.3409   -0.5419    1.7322   C.3       1 RES1   0.0000
    22 C19       4.1221    0.5353    0.9422   C.3       1 RES1   0.0000
    23 C20       5.6316    0.3096    0.8755   C.3       1 RES1   0.0000
    24 C21       6.3560    1.3768    0.0649   C.3       1 RES1   0.0000
    25 O2        2.5246   -1.2801    0.8080   O.3       1 RES1   0.0000
    26 C22       2.9114   -2.5872    0.3655   C.3       1 RES1   0.0000
    27 C23       4.3327   -2.7132   -0.2098   C.3       1 RES1   0.0000
    28 C24       4.5960   -2.0406   -1.5541   C.3       1 RES1   0.0000
    29 C25       6.0217   -2.3076   -2.0219   C.3       1 RES1   0.0000
    30 C26       1.7041   -2.9708   -0.5256   C.2       1 RES1   0.0000
    31 O3        0.8970   -2.0807   -0.8594   O.2       1 RES1   0.0000
    32 N2        1.4479   -4.2613   -0.7500   N.am      1 RES1   0.0000
    33 C27       2.4535   -5.2985   -0.9294   C.3       1 RES1   0.0000
    34 C28       3.2173   -5.1555   -2.2622   C.3       1 RES1   0.0000
    35 C29       3.4639   -6.4994   -2.9488   C.3       1 RES1   0.0000
    36 C30       4.5360   -6.4231   -4.0490   C.3       1 RES1   0.0000
    37 C31       4.0571   -6.0397   -5.4595   C.3       1 RES1   0.0000
    38 C32       4.2595   -4.5755   -5.8624   C.3       1 RES1   0.0000
    39 C33       3.9930   -4.3873   -7.3586   C.3       1 RES1   0.0000
    40 C34       4.0823   -2.9348   -7.8135   C.3       1 RES1   0.0000
    41 C35       0.0646   -4.6758   -0.9687   C.3       1 RES1   0.0000
    42 C36      -0.2086   -5.2457   -2.3564   C.3       1 RES1   0.0000
    43 C37      -1.6977   -5.2782   -2.6756   C.3       1 RES1   0.0000
    44 C38      -1.9357   -5.8170   -4.0872   C.3       1 RES1   0.0000
    45 C39      -3.1880   -5.2220   -4.7291   C.3       1 RES1   0.0000
    46 C40      -3.1021   -5.2325   -6.2636   C.3       1 RES1   0.0000
    47 C41      -2.9663   -3.8225   -6.8594   C.3       1 RES1   0.0000
    48 C42      -2.2519   -3.8014   -8.2095   C.3       1 RES1   0.0000
    49 H1        1.8000    9.1523    6.4620   H         1 RES1   0.0000
    50 H2        0.6903    7.9419    5.8163   H         1 RES1   0.0000
    51 H3        2.2940    8.1713    5.0783   H         1 RES1   0.0000
    52 H4        1.8826    7.2126    7.9515   H         1 RES1   0.0000
    53 H5        3.4061    7.3411    7.0779   H         1 RES1   0.0000
    54 H6        2.8393    5.0548    7.0756   H         1 RES1   0.0000
    55 H7        2.5133    5.6060    5.4328   H         1 RES1   0.0000
    56 H8        0.1749    5.4752    5.7099   H         1 RES1   0.0000
    57 H9        0.2692    5.6813    7.4407   H         1 RES1   0.0000
    58 H10      -0.0529    3.4850    7.6807   H         1 RES1   0.0000
    59 H11       1.5637    3.2229    7.0437   H         1 RES1   0.0000
    60 H12      -0.8262    3.4851    5.2043   H         1 RES1   0.0000
    61 H13      -0.5201    1.9712    6.0527   H         1 RES1   0.0000
    62 H14       1.8739    3.0021    4.6546   H         1 RES1   0.0000
    63 H15       0.5607    2.6196    3.5458   H         1 RES1   0.0000
    64 H16       0.3930    0.4123    4.1539   H         1 RES1   0.0000
    65 H17       1.3013    0.5963    5.6624   H         1 RES1   0.0000
    66 H18       3.8803    1.6738    4.7569   H         1 RES1   0.0000
    67 H19       4.4942    0.1574    4.0633   H         1 RES1   0.0000
    68 H20       2.9304    0.3989    6.6833   H         1 RES1   0.0000
    69 H21       4.6653    0.4815    6.5459   H         1 RES1   0.0000
    70 H22       4.9239   -1.7887    6.2706   H         1 RES1   0.0000
    71 H23       3.4398   -1.9572    5.3381   H         1 RES1   0.0000
    72 H24       2.0986   -1.6730    7.4075   H         1 RES1   0.0000
    73 H25       3.5691   -1.5297    8.3629   H         1 RES1   0.0000
    74 H26       3.9372   -3.8085    8.3830   H         1 RES1   0.0000
    75 H27       3.4896   -3.9877    6.7107   H         1 RES1   0.0000
    76 H28       1.0355   -3.3823    7.9759   H         1 RES1   0.0000
    77 H29       1.8398   -4.4460    9.1120   H         1 RES1   0.0000
    78 H30       2.0993   -6.1702    7.4214   H         1 RES1   0.0000
    79 H31       1.6120   -5.0457    6.1553   H         1 RES1   0.0000
    80 H32      -0.2512   -6.0019    8.3544   H         1 RES1   0.0000
    81 H33      -0.2154   -6.6144    6.7027   H         1 RES1   0.0000
    82 H34      -0.6623   -4.9331    7.0115   H         1 RES1   0.0000
    83 H35       4.0072   -1.2065    2.2924   H         1 RES1   0.0000
    84 H36       3.7019    0.5285   -0.0694   H         1 RES1   0.0000
    85 H37       3.9115    1.5218    1.3620   H         1 RES1   0.0000
    86 H38       5.8684   -0.6582    0.4322   H         1 RES1   0.0000
    87 H39       6.0500    0.2970    1.8795   H         1 RES1   0.0000
    88 H40       5.9320    1.4768   -0.9327   H         1 RES1   0.0000
    89 H41       7.3910    1.0771   -0.0441   H         1 RES1   0.0000
    90 H42       6.3649    2.3440    0.5564   H         1 RES1   0.0000
    91 H43       2.8458   -3.2797    1.2266   H         1 RES1   0.0000
    92 H44       5.0181   -2.3198    0.5418   H         1 RES1   0.0000
    93 H45       4.5647   -3.7742   -0.2892   H         1 RES1   0.0000
    94 H46       4.4269   -0.9687   -1.4665   H         1 RES1   0.0000
    95 H47       3.8889   -2.4238   -2.2886   H         1 RES1   0.0000
    96 H48       6.7474   -1.8788   -1.3386   H         1 RES1   0.0000
    97 H49       6.1894   -1.8696   -2.9991   H         1 RES1   0.0000
    98 H50       6.2178   -3.3734   -2.0960   H         1 RES1   0.0000
    99 H51       1.9326   -6.2560   -0.9240   H         1 RES1   0.0000
   100 H52       3.1395   -5.2878   -0.0829   H         1 RES1   0.0000
   101 H53       4.1884   -4.6970   -2.0903   H         1 RES1   0.0000
   102 H54       2.6580   -4.4973   -2.9273   H         1 RES1   0.0000
   103 H55       2.5305   -6.8892   -3.3581   H         1 RES1   0.0000
   104 H56       3.8084   -7.2065   -2.1910   H         1 RES1   0.0000
   105 H57       5.0019   -7.4071   -4.1134   H         1 RES1   0.0000
   106 H58       5.3209   -5.7316   -3.7348   H         1 RES1   0.0000
   107 H59       3.0058   -6.3070   -5.5774   H         1 RES1   0.0000
   108 H60       4.6164   -6.6481   -6.1714   H         1 RES1   0.0000
   109 H61       5.2895   -4.2791   -5.6495   H         1 RES1   0.0000
   110 H62       3.6032   -3.9178   -5.2876   H         1 RES1   0.0000
   111 H63       3.0056   -4.7835   -7.6074   H         1 RES1   0.0000
   112 H64       4.7237   -4.9769   -7.9124   H         1 RES1   0.0000
   113 H65       3.2735   -2.3385   -7.3941   H         1 RES1   0.0000
   114 H66       4.0100   -2.8761   -8.8959   H         1 RES1   0.0000
   115 H67       5.0290   -2.4935   -7.5127   H         1 RES1   0.0000
   116 H68      -0.5734   -3.8069   -0.7783   H         1 RES1   0.0000
   117 H69      -0.1478   -5.4315   -0.2043   H         1 RES1   0.0000
   118 H70       0.1845   -6.2583   -2.4385   H         1 RES1   0.0000
   119 H71       0.2926   -4.6237   -3.0967   H         1 RES1   0.0000
   120 H72      -2.0985   -4.2612   -2.5849   H         1 RES1   0.0000
   121 H73      -2.2179   -5.9112   -1.9599   H         1 RES1   0.0000
   122 H74      -2.0336   -6.9033   -4.0694   H         1 RES1   0.0000
   123 H75      -1.0654   -5.5884   -4.7057   H         1 RES1   0.0000
   124 H76      -3.3136   -4.1883   -4.3958   H         1 RES1   0.0000
   125 H77      -4.0607   -5.7696   -4.3799   H         1 RES1   0.0000
   126 H78      -3.9756   -5.7175   -6.6966   H         1 RES1   0.0000
   127 H79      -2.2329   -5.8180   -6.5654   H         1 RES1   0.0000
   128 H80      -2.4008   -3.1872   -6.1692   H         1 RES1   0.0000
   129 H81      -3.9615   -3.3861   -6.9781   H         1 RES1   0.0000
   130 H82      -1.2462   -4.2077   -8.1141   H         1 RES1   0.0000
   131 H83      -2.1715   -2.7784   -8.5777   H         1 RES1   0.0000
   132 H84      -2.7917   -4.3893   -8.9476   H         1 RES1   0.0000
   133 C43       3.1067    9.3284   -1.9791   C.3       1 RES1   0.0000
   134 C44       2.2476    9.2428   -0.7305   C.3       1 RES1   0.0000
   135 C45       3.0175    8.5906    0.4126   C.3       1 RES1   0.0000
   136 C46       2.1359    8.3871    1.6445   C.3       1 RES1   0.0000
   137 C47       1.1678    7.2194    1.4637   C.3       1 RES1   0.0000
   138 C48       0.4656    6.8115    2.7604   C.3       1 RES1   0.0000
   139 C49       0.1026    5.3237    2.7976   C.3       1 RES1   0.0000
   140 C50      -0.7385    4.9663    1.5656   C.3       1 RES1   0.0000
   141 N3       -1.8018    3.9808    1.7712   N.am      1 RES1   0.0000
   142 C51      -3.0883    4.6205    2.0351   C.3       1 RES1   0.0000
   143 C52      -3.6642    5.3723    0.8033   C.3       1 RES1   0.0000
   144 C53      -3.3569    6.8803    0.6454   C.3       1 RES1   0.0000
   145 C54      -2.3347    7.2477   -0.4478   C.3       1 RES1   0.0000
   146 C55      -2.8857    7.3329   -1.8736   C.3       1 RES1   0.0000
   147 C56      -1.7935    7.6629   -2.9010   C.3       1 RES1   0.0000
   148 C57      -0.7527    6.5588   -3.1020   C.3       1 RES1   0.0000
   149 C58       0.2000    6.8879   -4.2465   C.3       1 RES1   0.0000
   150 C59      -1.5619    2.6980    1.4915   C.2       1 RES1   0.0000
   151 O4       -0.4569    2.3076    1.0724   O.2       1 RES1   0.0000
   152 C60      -2.6796    1.6354    1.5768   C.3       1 RES1   0.0000
   153 C61      -3.5461    1.8288    0.3076   C.3       1 RES1   0.0000
   154 C62      -2.6972    1.8481   -0.9773   C.3       1 RES1   0.0000
   155 C63      -2.2585    3.2001   -1.5325   C.3       1 RES1   0.0000
   156 O5       -2.0486    0.3317    1.5577   O.3       1 RES1   0.0000
   157 C64      -2.2389   -0.5518    2.6899   C.3       1 RES1   0.0000
   158 C65      -3.4553   -1.4691    2.4169   C.3       1 RES1   0.0000
   159 C66      -3.1080   -2.7746    1.6864   C.3       1 RES1   0.0000
   160 C67      -2.8367   -3.9647    2.5976   C.3       1 RES1   0.0000
   161 C68      -0.9492   -1.3988    2.8043   C.2       1 RES1   0.0000
   162 O6       -0.2811   -1.5865    1.7697   O.2       1 RES1   0.0000
   163 N4       -0.5629   -1.9093    3.9771   N.am      1 RES1   0.0000
   164 C69       0.7824   -2.4741    4.0790   C.3       1 RES1   0.0000
   165 C70       0.9903   -3.9296    3.6391   C.3       1 RES1   0.0000
   166 C71       2.4774   -4.2698    3.8298   C.3       1 RES1   0.0000
   167 C72       2.8361   -5.7587    3.9294   C.3       1 RES1   0.0000
   168 C73       2.9650   -6.5646    2.6368   C.3       1 RES1   0.0000
   169 C74       1.6390   -6.9934    2.0063   C.3       1 RES1   0.0000
   170 C75       0.8597   -7.9897    2.8677   C.3       1 RES1   0.0000
   171 C76      -0.4285   -8.4472    2.1909   C.3       1 RES1   0.0000
   172 C77      -1.4406   -2.2164    5.1027   C.3       1 RES1   0.0000
   173 C78      -1.1154   -1.5694    6.4522   C.3       1 RES1   0.0000
   174 C79      -2.3556   -1.5231    7.3566   C.3       1 RES1   0.0000
   175 C80      -2.9303   -2.8645    7.8321   C.3       1 RES1   0.0000
   176 C81      -3.6421   -3.7654    6.8151   C.3       1 RES1   0.0000
   177 C82      -4.7742   -3.1128    6.0202   C.3       1 RES1   0.0000
   178 C83      -6.0105   -2.7946    6.8563   C.3       1 RES1   0.0000
   179 C84      -7.1246   -2.2102    5.9959   C.3       1 RES1   0.0000
   180 H85       2.5884    9.8523   -2.7739   H         1 RES1   0.0000
   181 H86       3.3739    8.3319   -2.3247   H         1 RES1   0.0000
   182 H87       4.0179    9.8674   -1.7516   H         1 RES1   0.0000
   183 H88       1.3428    8.6759   -0.9541   H         1 RES1   0.0000
   184 H89       1.9289   10.2343   -0.4074   H         1 RES1   0.0000
   185 H90       3.8645    9.2306    0.6702   H         1 RES1   0.0000
   186 H91       3.4253    7.6352    0.0675   H         1 RES1   0.0000
   187 H92       1.5785    9.3055    1.8336   H         1 RES1   0.0000
   188 H93       2.7706    8.2072    2.5101   H         1 RES1   0.0000
   189 H94       0.4312    7.4954    0.7077   H         1 RES1   0.0000
   190 H95       1.7142    6.3596    1.0687   H         1 RES1   0.0000
   191 H96      -0.4415    7.3973    2.9074   H         1 RES1   0.0000
   192 H97       1.1185    7.0145    3.6031   H         1 RES1   0.0000
   193 H98      -0.4761    5.1346    3.7037   H         1 RES1   0.0000
   194 H99       1.0154    4.7221    2.8387   H         1 RES1   0.0000
   195 H100     -1.2445    5.8776    1.2656   H         1 RES1   0.0000
   196 H101     -0.0861    4.6235    0.7591   H         1 RES1   0.0000
   197 H102     -2.9384    5.3359    2.8473   H         1 RES1   0.0000
   198 H103     -3.8024    3.8727    2.3833   H         1 RES1   0.0000
   199 H104     -4.7440    5.2610    0.8668   H         1 RES1   0.0000
   200 H105     -3.3527    4.8679   -0.1054   H         1 RES1   0.0000
   201 H106     -3.0412    7.2935    1.6068   H         1 RES1   0.0000
   202 H107     -4.2815    7.4001    0.3922   H         1 RES1   0.0000
   203 H108     -1.5135    6.5337   -0.4600   H         1 RES1   0.0000
   204 H109     -1.9279    8.2286   -0.1987   H         1 RES1   0.0000
   205 H110     -3.6443    8.1159   -1.9169   H         1 RES1   0.0000
   206 H111     -3.3631    6.3947   -2.1600   H         1 RES1   0.0000
   207 H112     -1.2841    8.5824   -2.6071   H         1 RES1   0.0000
   208 H113     -2.2722    7.8518   -3.8632   H         1 RES1   0.0000
   209 H114     -1.2663    5.6155   -3.3133   H         1 RES1   0.0000
   210 H115     -0.1691    6.4264   -2.1877   H         1 RES1   0.0000
   211 H116     -0.3469    6.9957   -5.1784   H         1 RES1   0.0000
   212 H117      0.9430    6.1031   -4.3734   H         1 RES1   0.0000
   213 H118      0.7232    7.8194   -4.0523   H         1 RES1   0.0000
   214 H119     -3.2865    1.7318    2.4821   H         1 RES1   0.0000
   215 H120     -4.2593    1.0025    0.2501   H         1 RES1   0.0000
   216 H121     -4.1212    2.7517    0.3842   H         1 RES1   0.0000
   217 H122     -3.2785    1.3640   -1.7608   H         1 RES1   0.0000
   218 H123     -1.7826    1.2530   -0.7910   H         1 RES1   0.0000
   219 H124     -3.1109    3.7959   -1.8528   H         1 RES1   0.0000
   220 H125     -1.6441    3.0247   -2.4125   H         1 RES1   0.0000
   221 H126     -1.6547    3.7596   -0.8264   H         1 RES1   0.0000
   222 H127     -2.3699    0.0597    3.5931   H         1 RES1   0.0000
   223 H128     -3.9898   -1.7141    3.3353   H         1 RES1   0.0000
   224 H129     -4.1353   -0.8750    1.8003   H         1 RES1   0.0000
   225 H130     -2.2540   -2.6060    1.0237   H         1 RES1   0.0000
   226 H131     -3.9596   -3.0358    1.0654   H         1 RES1   0.0000
   227 H132     -1.8850   -3.8881    3.1090   H         1 RES1   0.0000
   228 H133     -2.8268   -4.8717    2.0007   H         1 RES1   0.0000
   229 H134     -3.6311   -4.0530    3.3318   H         1 RES1   0.0000
   230 H135      1.0655   -2.3681    5.1265   H         1 RES1   0.0000
   231 H136      1.4337   -1.8442    3.4721   H         1 RES1   0.0000
   232 H137      0.6841   -4.0383    2.5968   H         1 RES1   0.0000
   233 H138      0.3878   -4.6048    4.2497   H         1 RES1   0.0000
   234 H139      2.7892   -3.8229    4.7780   H         1 RES1   0.0000
   235 H140      3.0789   -3.7879    3.0528   H         1 RES1   0.0000
   236 H141      2.1097   -6.2530    4.5716   H         1 RES1   0.0000
   237 H142      3.8018   -5.8060    4.4363   H         1 RES1   0.0000
   238 H143      3.5217   -7.4740    2.8733   H         1 RES1   0.0000
   239 H144      3.5648   -6.0038    1.9129   H         1 RES1   0.0000
   240 H145      1.8601   -7.4806    1.0530   H         1 RES1   0.0000
   241 H146      1.0163   -6.1169    1.8074   H         1 RES1   0.0000
   242 H147      0.6072   -7.5411    3.8307   H         1 RES1   0.0000
   243 H148      1.4909   -8.8597    3.0620   H         1 RES1   0.0000
   244 H149     -1.0851   -7.6011    1.9886   H         1 RES1   0.0000
   245 H150     -0.9598   -9.1413    2.8369   H         1 RES1   0.0000
   246 H151     -0.2122   -8.9528    1.2520   H         1 RES1   0.0000
   247 H152     -1.3847   -3.3003    5.2320   H         1 RES1   0.0000
   248 H153     -2.4567   -1.9629    4.8181   H         1 RES1   0.0000
   249 H154     -0.7564   -0.5480    6.3018   H         1 RES1   0.0000
   250 H155     -0.3337   -2.1359    6.9612   H         1 RES1   0.0000
   251 H156     -3.1354   -0.9382    6.8678   H         1 RES1   0.0000
   252 H157     -2.0726   -0.9736    8.2554   H         1 RES1   0.0000
   253 H158     -3.6441   -2.6324    8.6240   H         1 RES1   0.0000
   254 H159     -2.1310   -3.4448    8.2978   H         1 RES1   0.0000
   255 H160     -4.0662   -4.5981    7.3785   H         1 RES1   0.0000
   256 H161     -2.9206   -4.2048    6.1232   H         1 RES1   0.0000
   257 H162     -5.0688   -3.8001    5.2228   H         1 RES1   0.0000
   258 H163     -4.4294   -2.1895    5.5462   H         1 RES1   0.0000
   259 H164     -5.7515   -2.0845    7.6423   H         1 RES1   0.0000
   260 H165     -6.3636   -3.7093    7.3334   H         1 RES1   0.0000
   261 H166     -6.8107   -1.2728    5.5387   H         1 RES1   0.0000
   262 H167     -8.0038   -2.0118    6.6008   H         1 RES1   0.0000
   263 H168     -7.4024   -2.9036    5.2046   H         1 RES1   0.0000
   264 C85      -4.0879   -7.0697    0.2476   C.3       1 RES1   0.0000
   265 C86      -4.9347   -6.8998   -1.0118   C.3       1 RES1   0.0000
   266 C87      -5.1516   -5.4435   -1.4275   C.3       1 RES1   0.0000
   267 C88      -5.9841   -4.6331   -0.4357   C.3       1 RES1   0.0000
   268 C89      -6.5088   -3.3068   -1.0181   C.3       1 RES1   0.0000
   269 C90      -5.7831   -2.0416   -0.5452   C.3       1 RES1   0.0000
   270 C91      -4.3742   -1.8262   -1.1289   C.3       1 RES1   0.0000
   271 C92      -4.4751   -0.9809   -2.3932   C.3       1 RES1   0.0000
   272 N5       -3.2653   -0.7810   -3.2106   N.am      1 RES1   0.0000
   273 C93      -3.5537   -0.8504   -4.6455   C.3       1 RES1   0.0000
   274 C94      -4.6658    0.0676   -5.1741   C.3       1 RES1   0.0000
   275 C95      -4.3542    1.5757   -5.1474   C.3       1 RES1   0.0000
   276 C96      -5.2390    2.3591   -4.1705   C.3       1 RES1   0.0000
   277 C97      -5.1229    3.8684   -4.3930   C.3       1 RES1   0.0000
   278 C98      -6.1620    4.7118   -3.6471   C.3       1 RES1   0.0000
   279 C99      -6.0027    4.7835   -2.1217   C.3       1 RES1   0.0000
   280 C100     -6.9402    3.8440   -1.3755   C.3       1 RES1   0.0000
   281 C101     -2.0412   -0.6669   -2.6923   C.2       1 RES1   0.0000
   282 O7       -1.7891   -0.8410   -1.4828   O.2       1 RES1   0.0000
   283 C102     -0.8185   -0.3430   -3.5900   C.3       1 RES1   0.0000
   284 C103     -0.3629   -1.7540   -4.0601   C.3       1 RES1   0.0000
   285 C104      0.3635   -1.9105   -5.4024   C.3       1 RES1   0.0000
   286 C105      0.6279   -3.3817   -5.7080   C.3       1 RES1   0.0000
   287 O8        0.0931    0.3286   -2.6927   O.3       1 RES1   0.0000
   288 C106      0.8704    1.4396   -3.1694   C.3       1 RES1   0.0000
   289 C107      1.8266    0.9847   -4.2686   C.3       1 RES1   0.0000
   290 C108      2.8495   -0.0082   -3.7259   C.3       1 RES1   0.0000
   291 C109      3.8762   -0.4036   -4.7763   C.3       1 RES1   0.0000
   292 C110      1.5850    1.9812   -1.8961   C.2       1 RES1   0.0000
   293 O9        1.4747    1.2969   -0.8588   O.2       1 RES1   0.0000
   294 N6        2.2354    3.1477   -1.8725   N.am      1 RES1   0.0000
   295 C111      2.7927    3.8211   -3.0405   C.3       1 RES1   0.0000
   296 C112      4.1426    3.1820   -3.4377   C.3       1 RES1   0.0000
   297 C113      5.3595    4.0867   -3.6316   C.3       1 RES1   0.0000
   298 C114      6.5144    3.2194   -4.1857   C.3       1 RES1   0.0000
   299 C115      7.6451    2.9121   -3.1838   C.3       1 RES1   0.0000
   300 C116      7.9756    1.4194   -3.0355   C.3       1 RES1   0.0000
   301 C117      9.1547    1.2070   -2.0755   C.3       1 RES1   0.0000
   302 C118      9.2820   -0.2215   -1.5452   C.3       1 RES1   0.0000
   303 C119      2.5581    3.7525   -0.5603   C.3       1 RES1   0.0000
   304 C120      4.0093    4.1984   -0.3681   C.3       1 RES1   0.0000
   305 C121      4.2924    4.9088    0.9698   C.3       1 RES1   0.0000
   306 C122      4.5091    4.0039    2.1881   C.3       1 RES1   0.0000
   307 C123      5.4519    4.5967    3.2539   C.3       1 RES1   0.0000
   308 C124      6.8168    3.8965    3.2090   C.3       1 RES1   0.0000
   309 C125      6.6840    2.4814    3.7851   C.3       1 RES1   0.0000
   310 C126      7.8240    1.5184    3.4692   C.3       1 RES1   0.0000
   311 H169     -3.9007   -8.1284    0.4245   H         1 RES1   0.0000
   312 H170     -4.6006   -6.6673    1.1206   H         1 RES1   0.0000
   313 H171     -3.1245   -6.5649    0.1380   H         1 RES1   0.0000
   314 H172     -5.9033   -7.3773   -0.8530   H         1 RES1   0.0000
   315 H173     -4.4445   -7.4251   -1.8361   H         1 RES1   0.0000
   316 H174     -5.6614   -5.4493   -2.3912   H         1 RES1   0.0000
   317 H175     -4.1845   -4.9611   -1.5683   H         1 RES1   0.0000
   318 H176     -5.3943   -4.4433    0.4615   H         1 RES1   0.0000
   319 H177     -6.8353   -5.2402   -0.1274   H         1 RES1   0.0000
   320 H178     -7.5542   -3.1920   -0.7271   H         1 RES1   0.0000
   321 H179     -6.4829   -3.3599   -2.1075   H         1 RES1   0.0000
   322 H180     -5.7283   -2.0798    0.5444   H         1 RES1   0.0000
   323 H181     -6.4011   -1.1759   -0.8013   H         1 RES1   0.0000
   324 H182     -3.9161   -2.7866   -1.3582   H         1 RES1   0.0000
   325 H183     -3.7445   -1.3151   -0.4030   H         1 RES1   0.0000
   326 H184     -4.8593    0.0077   -2.1144   H         1 RES1   0.0000
   327 H185     -5.2107   -1.4544   -3.0437   H         1 RES1   0.0000
   328 H186     -3.8541   -1.8844   -4.8537   H         1 RES1   0.0000
   329 H187     -2.6549   -0.6417   -5.2185   H         1 RES1   0.0000
   330 H188     -5.6023   -0.1100   -4.6460   H         1 RES1   0.0000
   331 H189     -4.8282   -0.2490   -6.2079   H         1 RES1   0.0000
   332 H190     -4.5051    1.9792   -6.1502   H         1 RES1   0.0000
   333 H191     -3.3046    1.7456   -4.8954   H         1 RES1   0.0000
   334 H192     -4.9593    2.1052   -3.1446   H         1 RES1   0.0000
   335 H193     -6.2772    2.0561   -4.3226   H         1 RES1   0.0000
   336 H194     -5.2629    4.0565   -5.4608   H         1 RES1   0.0000
   337 H195     -4.1161    4.2048   -4.1246   H         1 RES1   0.0000
   338 H196     -7.1557    4.3315   -3.8838   H         1 RES1   0.0000
   339 H197     -6.1009    5.7213   -4.0553   H         1 RES1   0.0000
   340 H198     -6.2053    5.8029   -1.7896   H         1 RES1   0.0000
   341 H199     -4.9696    4.5566   -1.8525   H         1 RES1   0.0000
   342 H200     -7.9716    4.1265   -1.5598   H         1 RES1   0.0000
   343 H201     -6.7692    3.8974   -0.3025   H         1 RES1   0.0000
   344 H202     -6.8032    2.8171   -1.7005   H         1 RES1   0.0000
   345 H203     -1.0534    0.3228   -4.4248   H         1 RES1   0.0000
   346 H204      0.2516   -2.1541   -3.2484   H         1 RES1   0.0000
   347 H205     -1.2636   -2.3752   -4.1307   H         1 RES1   0.0000
   348 H206      1.3264   -1.4070   -5.3926   H         1 RES1   0.0000
   349 H207     -0.2353   -1.4992   -6.2175   H         1 RES1   0.0000
   350 H208      1.2407   -3.8276   -4.9310   H         1 RES1   0.0000
   351 H209      1.1623   -3.4820   -6.6468   H         1 RES1   0.0000
   352 H210     -0.2882   -3.9550   -5.7910   H         1 RES1   0.0000
   353 H211      0.1957    2.2302   -3.5484   H         1 RES1   0.0000
   354 H212      1.2180    0.5386   -5.0523   H         1 RES1   0.0000
   355 H213      2.3280    1.8375   -4.7103   H         1 RES1   0.0000
   356 H214      2.3214   -0.8835   -3.3417   H         1 RES1   0.0000
   357 H215      3.3557    0.4515   -2.8760   H         1 RES1   0.0000
   358 H216      3.4134   -0.9456   -5.5944   H         1 RES1   0.0000
   359 H217      4.6390   -1.0360   -4.3375   H         1 RES1   0.0000
   360 H218      4.3690    0.4701   -5.1940   H         1 RES1   0.0000
   361 H219      2.9160    4.8768   -2.7960   H         1 RES1   0.0000
   362 H220      2.0832    3.7497   -3.8662   H         1 RES1   0.0000
   363 H221      4.0122    2.6673   -4.3866   H         1 RES1   0.0000
   364 H222      4.4060    2.4271   -2.6967   H         1 RES1   0.0000
   365 H223      5.6747    4.5594   -2.7007   H         1 RES1   0.0000
   366 H224      5.1103    4.8837   -4.3333   H         1 RES1   0.0000
   367 H225      6.9330    3.7033   -5.0673   H         1 RES1   0.0000
   368 H226      6.1000    2.2698   -4.5317   H         1 RES1   0.0000
   369 H227      7.3774    3.2997   -2.1986   H         1 RES1   0.0000
   370 H228      8.5479    3.4345   -3.5000   H         1 RES1   0.0000
   371 H229      8.2241    0.9940   -4.0105   H         1 RES1   0.0000
   372 H230      7.0985    0.8823   -2.6653   H         1 RES1   0.0000
   373 H231      9.0629    1.8996   -1.2335   H         1 RES1   0.0000
   374 H232     10.0706    1.4669   -2.6038   H         1 RES1   0.0000
   375 H233      8.5298   -0.4408   -0.7883   H         1 RES1   0.0000
   376 H234     10.2550   -0.3602   -1.0822   H         1 RES1   0.0000
   377 H235      9.1830   -0.9500   -2.3458   H         1 RES1   0.0000
   378 H236      2.2643    3.0406    0.2137   H         1 RES1   0.0000
   379 H237      1.9252    4.6425   -0.4754   H         1 RES1   0.0000
   380 H238      4.2498    4.9142   -1.1512   H         1 RES1   0.0000
   381 H239      4.6786    3.3508   -0.4780   H         1 RES1   0.0000
   382 H240      3.4936    5.6177    1.1816   H         1 RES1   0.0000
   383 H241      5.1997    5.4981    0.8310   H         1 RES1   0.0000
   384 H242      3.5466    3.7395    2.6280   H         1 RES1   0.0000
   385 H243      4.9690    3.0837    1.8374   H         1 RES1   0.0000
   386 H244      5.0492    4.4626    4.2608   H         1 RES1   0.0000
   387 H245      5.5581    5.6687    3.0939   H         1 RES1   0.0000
   388 H246      7.5428    4.4548    3.7966   H         1 RES1   0.0000
   389 H247      7.1904    3.8659    2.1813   H         1 RES1   0.0000
   390 H248      5.7612    2.0396    3.4032   H         1 RES1   0.0000
   391 H249      6.5796    2.5552    4.8700   H         1 RES1   0.0000
   392 H250      7.9419    1.3800    2.3975   H         1 RES1   0.0000
   393 H251      7.6131    0.5486    3.9219   H         1 RES1   0.0000
   394 H252      8.7706    1.8695    3.8646   H         1 RES1   0.0000
@<TRIPOS>BOND
     1     1    20    1
     2     1    25    1
     3     1    31    1
     4     1   151    1
     5     1   156    1
     6     1   162    1
     7     1   282    1
     8     1   287    1
     9     1   293    1
    10     2     3    1
    11     2    49    1
    12     2    50    1
    13     2    51    1
    14     3     4    1
    15     3    52    1
    16     3    53    1
    17     4     5    1
    18     4    54    1
    19     4    55    1
    20     5     6    1
    21     5    56    1
    22     5    57    1
    23     6     7    1
    24     6    58    1
    25     6    59    1
    26     7     8    1
    27     7    60    1
    28     7    61    1
    29     8     9    1
    30     8    62    1
    31     8    63    1
    32     9    10    1
    33     9    64    1
    34     9    65    1
    35    10    11    1
    36    10    19    1
    37    11    12    1
    38    11    66    1
    39    11    67    1
    40    12    13    1
    41    12    68    1
    42    12    69    1
    43    13    14    1
    44    13    70    1
    45    13    71    1
    46    14    15    1
    47    14    72    1
    48    14    73    1
    49    15    16    1
    50    15    74    1
    51    15    75    1
    52    16    17    1
    53    16    76    1
    54    16    77    1
    55    17    18    1
    56    17    78    1
    57    17    79    1
    58    18    80    1
    59    18    81    1
    60    18    82    1
    61    19    20    2
    62    19    21    1
    63    21    22    1
    64    21    25    1
    65    21    83    1
    66    22    23    1
    67    22    84    1
    68    22    85    1
    69    23    24    1
    70    23    86    1
    71    23    87    1
    72    24    88    1
    73    24    89    1
    74    24    90    1
    75    25    26    1
    76    26    27    1
    77    26    30    1
    78    26    91    1
    79    27    28    1
    80    27    92    1
    81    27    93    1
    82    28    29    1
    83    28    94    1
    84    28    95    1
    85    29    96    1
    86    29    97    1
    87    29    98    1
    88    30    31    2
    89    30    32    1
    90    32    33    1
    91    32    41    1
    92    33    34    1
    93    33    99    1
    94    33   100    1
    95    34    35    1
    96    34   101    1
    97    34   102    1
    98    35    36    1
    99    35   103    1
   100    35   104    1
   101    36    37    1
   102    36   105    1
   103    36   106    1
   104    37    38    1
   105    37   107    1
   106    37   108    1
   107    38    39    1
   108    38   109    1
   109    38   110    1
   110    39    40    1
   111    39   111    1
   112    39   112    1
   113    40   113    1
   114    40   114    1
   115    40   115    1
   116    41    42    1
   117    41   116    1
   118    41   117    1
   119    42    43    1
   120    42   118    1
   121    42   119    1
   122    43    44    1
   123    43   120    1
   124    43   121    1
   125    44    45    1
   126    44   122    1
   127    44   123    1
   128    45    46    1
   129    45   124    1
   130    45   125    1
   131    46    47    1
   132    46   126    1
   133    46   127    1
   134    47    48    1
   135    47   128    1
   136    47   129    1
   137    48   130    1
   138    48   131    1
   139    48   132    1
   140   133   134    1
   141   133   180    1
   142   133   181    1
   143   133   182    1
   144   134   135    1
   145   134   183    1
   146   134   184    1
   147   135   136    1
   148   135   185    1
   149   135   186    1
   150   136   137    1
   151   136   187    1
   152   136   188    1
   153   137   138    1
   154   137   189    1
   155   137   190    1
   156   138   139    1
   157   138   191    1
   158   138   192    1
   159   139   140    1
   160   139   193    1
   161   139   194    1
   162   140   141    1
   163   140   195    1
   164   140   196    1
   165   141   142    1
   166   141   150    1
   167   142   143    1
   168   142   197    1
   169   142   198    1
   170   143   144    1
   171   143   199    1
   172   143   200    1
   173   144   145    1
   174   144   201    1
   175   144   202    1
   176   145   146    1
   177   145   203    1
   178   145   204    1
   179   146   147    1
   180   146   205    1
   181   146   206    1
   182   147   148    1
   183   147   207    1
   184   147   208    1
   185   148   149    1
   186   148   209    1
   187   148   210    1
   188   149   211    1
   189   149   212    1
   190   149   213    1
   191   150   151    2
   192   150   152    1
   193   152   153    1
   194   152   156    1
   195   152   214    1
   196   153   154    1
   197   153   215    1
   198   153   216    1
   199   154   155    1
   200   154   217    1
   201   154   218    1
   202   155   219    1
   203   155   220    1
   204   155   221    1
   205   156   157    1
   206   157   158    1
   207   157   161    1
   208   157   222    1
   209   158   159    1
   210   158   223    1
   211   158   224    1
   212   159   160    1
   213   159   225    1
   214   159   226    1
   215   160   227    1
   216   160   228    1
   217   160   229    1
   218   161   162    2
   219   161   163    1
   220   163   164    1
   221   163   172    1
   222   164   165    1
   223   164   230    1
   224   164   231    1
   225   165   166    1
   226   165   232    1
   227   165   233    1
   228   166   167    1
   229   166   234    1
   230   166   235    1
   231   167   168    1
   232   167   236    1
   233   167   237    1
   234   168   169    1
   235   168   238    1
   236   168   239    1
   237   169   170    1
   238   169   240    1
   239   169   241    1
   240   170   171    1
   241   170   242    1
   242   170   243    1
   243   171   244    1
   244   171   245    1
   245   171   246    1
   246   172   173    1
   247   172   247    1
   248   172   248    1
   249   173   174    1
   250   173   249    1
   251   173   250    1
   252   174   175    1
   253   174   251    1
   254   174   252    1
   255   175   176    1
   256   175   253    1
   257   175   254    1
   258   176   177    1
   259   176   255    1
   260   176   256    1
   261   177   178    1
   262   177   257    1
   263   177   258    1
   264   178   179    1
   265   178   259    1
   266   178   260    1
   267   179   261    1
   268   179   262    1
   269   179   263    1
   270   264   265    1
   271   264   311    1
   272   264   312    1
   273   264   313    1
   274   265   266    1
   275   265   314    1
   276   265   315    1
   277   266   267    1
   278   266   316    1
   279   266   317    1
   280   267   268    1
   281   267   318    1
   282   267   319    1
   283   268   269    1
   284   268   320    1
   285   268   321    1
   286   269   270    1
   287   269   322    1
   288   269   323    1
   289   270   271    1
   290   270   324    1
   291   270   325    1
   292   271   272    1
   293   271   326    1
   294   271   327    1
   295   272   273    1
   296   272   281    1
   297   273   274    1
   298   273   328    1
   299   273   329    1
   300   274   275    1
   301   274   330    1
   302   274   331    1
   303   275   276    1
   304   275   332    1
   305   275   333    1
   306   276   277    1
   307   276   334    1
   308   276   335    1
   309   277   278    1
   310   277   336    1
   311   277   337    1
   312   278   279    1
   313   278   338    1
   314   278   339    1
   315   279   280    1
   316   279   340    1
   317   279   341    1
   318   280   342    1
   319   280   343    1
   320   280   344    1
   321   281   282    2
   322   281   283    1
   323   283   284    1
   324   283   287    1
   325   283   345    1
   326   284   285    1
   327   284   346    1
   328   284   347    1
   329   285   286    1
   330   285   348    1
   331   285   349    1
   332   286   350    1
   333   286   351    1
   334   286   352    1
   335   287   288    1
   336   288   289    1
   337   288   292    1
   338   288   353    1
   339   289   290    1
   340   289   354    1
   341   289   355    1
   342   290   291    1
   343   290   356    1
   344   290   357    1
   345   291   358    1
   346   291   359    1
   347   291   360    1
   348   292   293    2
   349   292   294    1
   350   294   295    1
   351   294   303    1
   352   295   296    1
   353   295   361    1
   354   295   362    1
   355   296   297    1
   356   296   363    1
   357   296   364    1
   358   297   298    1
   359   297   365    1
   360   297   366    1
   361   298   299    1
   362   298   367    1
   363   298   368    1
   364   299   300    1
   365   299   369    1
   366   299   370    1
   367   300   301    1
   368   300   371    1
   369   300   372    1
   370   301   302    1
   371   301   373    1
   372   301   374    1
   373   302   375    1
   374   302   376    1
   375   302   377    1
   376   303   304    1
   377   303   378    1
   378   303   379    1
   379   304   305    1
   380   304   380    1
   381   304   381    1
   382   305   306    1
   383   305   382    1
   384   305   383    1
   385   306   307    1
   386   306   384    1
   387   306   385    1
   388   307   308    1
   389   307   386    1
   390   307   387    1
   391   308   309    1
   392   308   388    1
   393   308   389    1
   394   309   310    1
   395   309   390    1
   396   309   391    1
   397   310   392    1
   398   310   393    1
   399   310   394    1
@<TRIPOS>SUBSTRUCTURE
     1 RES1      394 GROUP             0 ****  ****    0  
